MODPATH_TIMESERIES_FILE         7         0
    1   0.0000000000E+00
END HEADER
       0       1  0.0000000000E+00         1    1         1       159  0.2317800000E+00  0.8080000000E+00  0.3166700000E+00  0.1783552333E+03  0.2221200000E+03  0.6165169546E+02         1
       0       1  0.0000000000E+00         2    1         2       158  0.9942800000E+00  0.7235100000E+00  0.3166700000E+00  0.1732094000E+03  0.2208526500E+03  0.6186448711E+02         1
       0       1  0.0000000000E+00         3    1         3       127  0.7866600000E+00  0.5750300000E+00  0.3166700000E+00  0.1470443000E+03  0.2336254500E+03  0.6207656362E+02         1
       0       1  0.0000000000E+00         4    1         4       157  0.9343600000E+00  0.4276500000E+00  0.3166700000E+00  0.1502444667E+03  0.2164147500E+03  0.6207652013E+02         1
       0       1  0.0000000000E+00         5    1         5       129  0.1051700000E+00  0.1907500000E+00  0.3166700000E+00  0.1756120167E+03  0.2278612500E+03  0.6165172928E+02         1
       0       1  0.0000000000E+00         6    1         6       159  0.3712200000E+00  0.9055700000E+00  0.3166700000E+00  0.1813764333E+03  0.2235835500E+03  0.6165169546E+02         1
       0       1  0.0000000000E+00         7    1         7       158  0.5924600000E+00  0.5881000000E+00  0.3166700000E+00  0.1645033000E+03  0.2188215000E+03  0.6186448711E+02         1
       0       1  0.0000000000E+00         8    1         8       158  0.4918200000E-01  0.7687200000E+00  0.3166700000E+00  0.1527322767E+03  0.2215308000E+03  0.6186448711E+02         1
       0       1  0.0000000000E+00         9    1         9       188  0.5367800000E+00  0.8615200000E+00  0.3166700000E+00  0.1632969000E+03  0.2079228000E+03  0.6186444362E+02         1
       0       1  0.0000000000E+00        10    1        10       128  0.5658100000E+00  0.7512100000E+00  0.3166700000E+00  0.1639258833E+03  0.2362681500E+03  0.6186453059E+02         1
       0       1  0.0000000000E+00        11    1        11       428  0.3033300000E+00  0.4987700000E+00  0.3166700000E+00  0.1582388167E+03  0.8248155000E+02  0.6186436631E+02         1
       0       1  0.0000000000E+00        12    1        12       428  0.5195800000E+00  0.7276900000E+00  0.3166700000E+00  0.1629242333E+03  0.8591535000E+02  0.6186436631E+02         1
       0       1  0.0000000000E+00        13    1        13       458  0.6519400000E-01  0.2823000000E+00  0.3166700000E+00  0.1530792033E+03  0.6423450000E+02  0.6186440496E+02         1
       0       1  0.0000000000E+00        14    1        14       429  0.2292100000E+00  0.2956400000E+00  0.3166700000E+00  0.1782995500E+03  0.7943460000E+02  0.6165159398E+02         1
       0       1  0.0000000000E+00        15    1        15       459  0.8705000000E-01  0.2828200000E+00  0.3166700000E+00  0.1752194167E+03  0.6424230000E+02  0.6165162298E+02         1
       0       1  0.0000000000E+00        16    1        16       427  0.9853000000E+00  0.1149800000E+00  0.3166700000E+00  0.1513481667E+03  0.7672470000E+02  0.6207643799E+02         1
       0       1  0.0000000000E+00        17    1        17       428  0.2881800000E+00  0.4443000000E+00  0.3166700000E+00  0.1579105667E+03  0.8166450000E+02  0.6186436631E+02         1
       0       1  0.0000000000E+00        18    1        18       428  0.8616100000E+00  0.5936600000E+00  0.3166700000E+00  0.1703348833E+03  0.8390490000E+02  0.6186436631E+02         1
       0       1  0.0000000000E+00        19    1        19       458  0.1387400000E+00  0.7458200000E+00  0.3166700000E+00  0.1546727000E+03  0.7118730000E+02  0.6186440496E+02         1
       0       1  0.0000000000E+00        20    1        20       488  0.7397800000E+00  0.8254900000E+00  0.3166700000E+00  0.1676952333E+03  0.5738235000E+02  0.6186445328E+02         1
       0       1  0.0000000000E+00        21    1        21       336  0.4310000000E+00  0.5916300000E+00  0.3166700000E+00  0.1176716667E+03  0.1288744500E+03  0.6228773171E+02         1
       0       1  0.0000000000E+00        22    1        22       247  0.5933000000E-01  0.3689900000E+00  0.3166700000E+00  0.1312854833E+03  0.1705348500E+03  0.6207640899E+02         1
       0       1  0.0000000000E+00        23    1        23       307  0.2211700000E+00  0.8534800000E+00  0.3166700000E+00  0.1347920167E+03  0.1478022000E+03  0.6207637517E+02         1
       0       1  0.0000000000E+00        24    1        24       247  0.2567900000E+00  0.5849000000E+00  0.3166700000E+00  0.1355637833E+03  0.1737735000E+03  0.6207640899E+02         1
       0       1  0.0000000000E+00        25    1        25       307  0.2104400000E+00  0.6133800000E+00  0.3166700000E+00  0.1345595333E+03  0.1442007000E+03  0.6207637517E+02         1
       0       1  0.0000000000E+00        26    1        26       306  0.5324300000E+00  0.3938700000E+00  0.3166700000E+00  0.1198693167E+03  0.1409080500E+03  0.6228772688E+02         1
       0       1  0.0000000000E+00        27    1        27       246  0.8638700000E+00  0.4237000000E+00  0.3166700000E+00  0.1270505167E+03  0.1713555000E+03  0.6228774138E+02         1
       0       1  0.0000000000E+00        28    1        28       306  0.6830700000E+00  0.8430300000E+00  0.3166700000E+00  0.1231331833E+03  0.1476454500E+03  0.6228772688E+02         1
       0       1  0.0000000000E+00        29    1        29       336  0.7929100000E+00  0.6862800000E+00  0.3166700000E+00  0.1255130500E+03  0.1302942000E+03  0.6228773171E+02         1
       0       1  0.0000000000E+00        30    1        30       246  0.9272600000E+00  0.5589900000E+00  0.3166700000E+00  0.1284239667E+03  0.1733848500E+03  0.6228774138E+02         1
       0       1  0.0000000000E+00        31    1        31       337  0.2392800000E+00  0.9642200000E+00  0.3166700000E+00  0.1351844000E+03  0.1344633000E+03  0.6207637517E+02         1
       0       1  0.0000000000E+00        32    1        32       276  0.1311800000E+00  0.8675200000E+00  0.3166700000E+00  0.1111755667E+03  0.1630128000E+03  0.6228773171E+02         1
       0       1  0.0000000000E+00        33    1        33       337  0.3718800000E+00  0.8327700000E+00  0.3166700000E+00  0.1380574000E+03  0.1324915500E+03  0.6207637517E+02         1
       0       1  0.0000000000E+00        34    1        34       337  0.3282800000E+00  0.3953600000E+00  0.3166700000E+00  0.1371127333E+03  0.1259304000E+03  0.6207637517E+02         1
       0       1  0.0000000000E+00        35    1        35       277  0.9814300000E+00  0.9902400000E+00  0.3166700000E+00  0.1512643167E+03  0.1648536000E+03  0.6207638483E+02         1
       2      11  0.4000000000E+01         1    1         1       159  0.2547215092E+00  0.8079950719E+00  0.3166700000E+00  0.1788522994E+03  0.2221199261E+03  0.6165175344E+02         1
       2      11  0.4000000000E+01         2    1         2       159  0.1720146687E-01  0.7235047675E+00  0.3166700000E+00  0.1737060318E+03  0.2208525715E+03  0.6165175344E+02         1
       2      11  0.4000000000E+01         3    1         3       127  0.8094425320E+00  0.5750241164E+00  0.3166700000E+00  0.1475379215E+03  0.2336253617E+03  0.6207659744E+02         1
       2      11  0.4000000000E+01         4    1         4       157  0.9571428189E+00  0.4276448418E+00  0.3166700000E+00  0.1507380944E+03  0.2164146726E+03  0.6207658778E+02         1
       2      11  0.4000000000E+01         5    1         5       129  0.1281116549E+00  0.1907446901E+00  0.3166700000E+00  0.1761090859E+03  0.2278611704E+03  0.6165176311E+02         1
       2      11  0.4000000000E+01         6    1         6       159  0.3941615514E+00  0.9055649723E+00  0.3166700000E+00  0.1818735003E+03  0.2235834746E+03  0.6165175344E+02         1
       2      11  0.4000000000E+01         7    1         7       158  0.6153217217E+00  0.5880947490E+00  0.3166700000E+00  0.1649986373E+03  0.2188214212E+03  0.6186453543E+02         1
       2      11  0.4000000000E+01         8    1         8       158  0.7204354971E-01  0.7687146080E+00  0.3166700000E+00  0.1532276102E+03  0.2215307191E+03  0.6186453543E+02         1
       2      11  0.4000000000E+01         9    1         9       188  0.5596415178E+00  0.8615153251E+00  0.3166700000E+00  0.1637922329E+03  0.2079227299E+03  0.6186453059E+02         1
       2      11  0.4000000000E+01        10    1        10       128  0.5886718951E+00  0.7512039987E+00  0.3166700000E+00  0.1644212244E+03  0.2362680600E+03  0.6186454509E+02         1
       2      11  0.4000000000E+01        11    1        11       428  0.3261909664E+00  0.4987736263E+00  0.3166700000E+00  0.1587341376E+03  0.8248160439E+02  0.6186453543E+02         1
       2      11  0.4000000000E+01        12    1        12       428  0.5424409056E+00  0.7276934546E+00  0.3166700000E+00  0.1634195530E+03  0.8591540182E+02  0.6186453543E+02         1
       2      11  0.4000000000E+01        13    1        13       458  0.8805503509E-01  0.2823042394E+00  0.3166700000E+00  0.1535745258E+03  0.6423456359E+02  0.6186454026E+02         1
       2      11  0.4000000000E+01        14    1        14       429  0.2521491481E+00  0.2956437954E+00  0.3166700000E+00  0.1787965649E+03  0.7943465693E+02  0.6165176794E+02         1
       2      11  0.4000000000E+01        15    1        15       459  0.1099892221E+00  0.2828240764E+00  0.3166700000E+00  0.1757164331E+03  0.6424236115E+02  0.6165177760E+02         1
       2      11  0.4000000000E+01        16    1        16       428  0.8111268206E-02  0.1149839473E+00  0.3166700000E+00  0.1518424108E+03  0.7672475921E+02  0.6186453543E+02         1
       2      11  0.4000000000E+01        17    1        17       428  0.3110409707E+00  0.4443036672E+00  0.3166700000E+00  0.1584058877E+03  0.8166455501E+02  0.6186453543E+02         1
       2      11  0.4000000000E+01        18    1        18       428  0.8844708094E+00  0.5936635552E+00  0.3166700000E+00  0.1708302009E+03  0.8390495333E+02  0.6186453543E+02         1
       2      11  0.4000000000E+01        19    1        19       458  0.1616010351E+00  0.7458240850E+00  0.3166700000E+00  0.1551680224E+03  0.7118736128E+02  0.6186454026E+02         1
       2      11  0.4000000000E+01        20    1        20       488  0.7626410418E+00  0.8254942752E+00  0.3166700000E+00  0.1681905559E+03  0.5738241413E+02  0.6186454992E+02         1
       2      11  0.4000000000E+01        21    1        21       336  0.4537064100E+00  0.5916302980E+00  0.3166700000E+00  0.1181636389E+03  0.1288744545E+03  0.6228788634E+02         1
       2      11  0.4000000000E+01        22    1        22       247  0.8211359574E-01  0.3689875988E+00  0.3166700000E+00  0.1317791279E+03  0.1705348140E+03  0.6207656845E+02         1
       2      11  0.4000000000E+01        23    1        23       307  0.2439538295E+00  0.8534790438E+00  0.3166700000E+00  0.1352856663E+03  0.1478021857E+03  0.6207656362E+02         1
       2      11  0.4000000000E+01        24    1        24       247  0.2795735492E+00  0.5848973952E+00  0.3166700000E+00  0.1360574269E+03  0.1737734609E+03  0.6207656845E+02         1
       2      11  0.4000000000E+01        25    1        25       307  0.2332238323E+00  0.6133792754E+00  0.3166700000E+00  0.1350531830E+03  0.1442006891E+03  0.6207656362E+02         1
       2      11  0.4000000000E+01        26    1        26       306  0.5551361060E+00  0.3938696143E+00  0.3166700000E+00  0.1203612823E+03  0.1409080442E+03  0.6228788634E+02         1
       2      11  0.4000000000E+01        27    1        27       246  0.8865756040E+00  0.4236979629E+00  0.3166700000E+00  0.1275424714E+03  0.1713554694E+03  0.6228789117E+02         1
       2      11  0.4000000000E+01        28    1        28       306  0.7057761060E+00  0.8430292455E+00  0.3166700000E+00  0.1236251490E+03  0.1476454387E+03  0.6228788634E+02         1
       2      11  0.4000000000E+01        29    1        29       336  0.8156164100E+00  0.6862802145E+00  0.3166700000E+00  0.1260050222E+03  0.1302942032E+03  0.6228788634E+02         1
       2      11  0.4000000000E+01        30    1        30       246  0.9499656040E+00  0.5589878518E+00  0.3166700000E+00  0.1289159214E+03  0.1733848178E+03  0.6228789117E+02         1
       2      11  0.4000000000E+01        31    1        31       337  0.2620638630E+00  0.9642199024E+00  0.3166700000E+00  0.1356780504E+03  0.1344632985E+03  0.6207656362E+02         1
       2      11  0.4000000000E+01        32    1        32       276  0.1538858303E+00  0.8675184177E+00  0.3166700000E+00  0.1116675263E+03  0.1630127763E+03  0.6228788634E+02         1
       2      11  0.4000000000E+01        33    1        33       337  0.3946638314E+00  0.8327700320E+00  0.3166700000E+00  0.1385510497E+03  0.1324915505E+03  0.6207656362E+02         1
       2      11  0.4000000000E+01        34    1        34       337  0.3510638418E+00  0.3953604631E+00  0.3166700000E+00  0.1376063832E+03  0.1259304069E+03  0.6207656362E+02         1
       2      11  0.4000000000E+01        35    1        35       278  0.4227994242E-02  0.9902379876E+00  0.3166700000E+00  0.1517582732E+03  0.1648535698E+03  0.6186452093E+02         1
       3      20  0.8000000000E+01         1    1         1       159  0.2776625226E+00  0.8079940667E+00  0.3166700000E+00  0.1793493547E+03  0.2221199110E+03  0.6165173895E+02         1
       3      20  0.8000000000E+01         2    1         2       159  0.4014248031E-01  0.7235037751E+00  0.3166700000E+00  0.1742030871E+03  0.2208525566E+03  0.6165173895E+02         1
       3      20  0.8000000000E+01         3    1         3       127  0.8322259930E+00  0.5750230048E+00  0.3166700000E+00  0.1480315632E+03  0.2336253451E+03  0.6207658295E+02         1
       3      20  0.8000000000E+01         4    1         4       157  0.9799263109E+00  0.4276437034E+00  0.3166700000E+00  0.1512317367E+03  0.2164146556E+03  0.6207658295E+02         1
       3      20  0.8000000000E+01         5    1         5       129  0.1510526965E+00  0.1907436405E+00  0.3166700000E+00  0.1766061418E+03  0.2278611546E+03  0.6165173895E+02         1
       3      20  0.8000000000E+01         6    1         6       159  0.4171025648E+00  0.9055639524E+00  0.3166700000E+00  0.1823705556E+03  0.2235834593E+03  0.6165173895E+02         1
       3      20  0.8000000000E+01         7    1         7       158  0.6381834962E+00  0.5880936896E+00  0.3166700000E+00  0.1654939758E+03  0.2188214053E+03  0.6186452576E+02         1
       3      20  0.8000000000E+01         8    1         8       158  0.9490532420E-01  0.7687135353E+00  0.3166700000E+00  0.1537229487E+03  0.2215307030E+03  0.6186452576E+02         1
       3      20  0.8000000000E+01         9    1         9       188  0.5825032291E+00  0.8615143544E+00  0.3166700000E+00  0.1642875700E+03  0.2079227153E+03  0.6186452576E+02         1
       3      20  0.8000000000E+01        10    1        10       128  0.6115336888E+00  0.7512028939E+00  0.3166700000E+00  0.1649165633E+03  0.2362680434E+03  0.6186453059E+02         1
       3      20  0.8000000000E+01        11    1        11       428  0.3490518350E+00  0.4987746836E+00  0.3166700000E+00  0.1592294564E+03  0.8248162025E+02  0.6186454509E+02         1
       3      20  0.8000000000E+01        12    1        12       428  0.5653017742E+00  0.7276945142E+00  0.3166700000E+00  0.1639148718E+03  0.8591541771E+02  0.6186454509E+02         1
       3      20  0.8000000000E+01        13    1        13       458  0.1109158224E+00  0.2823053016E+00  0.3166700000E+00  0.1540698428E+03  0.6423457952E+02  0.6186454509E+02         1
       3      20  0.8000000000E+01        14    1        14       429  0.2750888072E+00  0.2956452169E+00  0.3166700000E+00  0.1792935908E+03  0.7943467825E+02  0.6165176311E+02         1
       3      20  0.8000000000E+01        15    1        15       459  0.1329287069E+00  0.2828254112E+00  0.3166700000E+00  0.1762134553E+03  0.6424238117E+02  0.6165177277E+02         1
       3      20  0.8000000000E+01        16    1        16       428  0.3097213678E-01  0.1149850008E+00  0.3166700000E+00  0.1523377296E+03  0.7672477501E+02  0.6186454509E+02         1
       3      20  0.8000000000E+01        17    1        17       428  0.3339018393E+00  0.4443047239E+00  0.3166700000E+00  0.1589012065E+03  0.8166457086E+02  0.6186454509E+02         1
       3      20  0.8000000000E+01        18    1        18       428  0.9073316780E+00  0.5936646134E+00  0.3166700000E+00  0.1713255197E+03  0.8390496920E+02  0.6186454509E+02         1
       3      20  0.8000000000E+01        19    1        19       458  0.1844618224E+00  0.7458251409E+00  0.3166700000E+00  0.1556633395E+03  0.7118737711E+02  0.6186454509E+02         1
       3      20  0.8000000000E+01        20    1        20       488  0.7855017335E+00  0.8254953458E+00  0.3166700000E+00  0.1686858709E+03  0.5738243019E+02  0.6186454992E+02         1
       3      20  0.8000000000E+01        21    1        21       336  0.4764124967E+00  0.5916305223E+00  0.3166700000E+00  0.1186556041E+03  0.1288744578E+03  0.6228791050E+02         1
       3      20  0.8000000000E+01        22    1        22       247  0.1048970338E+00  0.3689872790E+00  0.3166700000E+00  0.1322727691E+03  0.1705348092E+03  0.6207657811E+02         1
       3      20  0.8000000000E+01        23    1        23       307  0.2667371362E+00  0.8534791133E+00  0.3166700000E+00  0.1357793046E+03  0.1478021867E+03  0.6207657811E+02         1
       3      20  0.8000000000E+01        24    1        24       247  0.3023569873E+00  0.5848970169E+00  0.3166700000E+00  0.1365510681E+03  0.1737734553E+03  0.6207657811E+02         1
       3      20  0.8000000000E+01        25    1        25       307  0.2560071389E+00  0.6133794054E+00  0.3166700000E+00  0.1355468213E+03  0.1442006911E+03  0.6207657811E+02         1
       3      20  0.8000000000E+01        26    1        26       306  0.5778422101E+00  0.3938696551E+00  0.3166700000E+00  0.1208532479E+03  0.1409080448E+03  0.6228790567E+02         1
       3      20  0.8000000000E+01        27    1        27       246  0.9092817396E+00  0.4236975141E+00  0.3166700000E+00  0.1280344377E+03  0.1713554627E+03  0.6228790567E+02         1
       3      20  0.8000000000E+01        28    1        28       306  0.7284822101E+00  0.8430291854E+00  0.3166700000E+00  0.1241171146E+03  0.1476454378E+03  0.6228790567E+02         1
       3      20  0.8000000000E+01        29    1        29       336  0.8383224967E+00  0.6862804167E+00  0.3166700000E+00  0.1264969874E+03  0.1302942063E+03  0.6228791050E+02         1
       3      20  0.8000000000E+01        30    1        30       246  0.9726717396E+00  0.5589873767E+00  0.3166700000E+00  0.1294078877E+03  0.1733848107E+03  0.6228790567E+02         1
       3      20  0.8000000000E+01        31    1        31       337  0.2848470940E+00  0.9642201971E+00  0.3166700000E+00  0.1361716870E+03  0.1344633030E+03  0.6207657811E+02         1
       3      20  0.8000000000E+01        32    1        32       276  0.1765919496E+00  0.8675180869E+00  0.3166700000E+00  0.1121594922E+03  0.1630127713E+03  0.6228790567E+02         1
       3      20  0.8000000000E+01        33    1        33       337  0.4174470623E+00  0.8327703637E+00  0.3166700000E+00  0.1390446864E+03  0.1324915555E+03  0.6207657811E+02         1
       3      20  0.8000000000E+01        34    1        34       337  0.3738470727E+00  0.3953609182E+00  0.3166700000E+00  0.1381000199E+03  0.1259304138E+03  0.6207657811E+02         1
       3      20  0.8000000000E+01        35    1        35       278  0.2708948065E-01  0.9902379975E+00  0.3166700000E+00  0.1522536054E+03  0.1648535700E+03  0.6186452576E+02         1
       4      30  0.1200000000E+02         1    1         1       159  0.3006102165E+00  0.8079932953E+00  0.3166700000E+00  0.1798465547E+03  0.2221198994E+03  0.6165147318E+02         1
       4      30  0.1200000000E+02         2    1         2       159  0.6308932244E-01  0.7235030127E+00  0.3166700000E+00  0.1747002687E+03  0.2208525452E+03  0.6165147318E+02         1
       4      30  0.1200000000E+02         3    1         3       127  0.8550122376E+00  0.5750227511E+00  0.3166700000E+00  0.1485252651E+03  0.2336253413E+03  0.6207648631E+02         1
       4      30  0.1200000000E+02         4    1         4       158  0.2721978213E-02  0.4276434381E+00  0.3166700000E+00  0.1517256429E+03  0.2164146516E+03  0.6186436631E+02         1
       4      30  0.1200000000E+02         5    1         5       129  0.1739996845E+00  0.1907428373E+00  0.3166700000E+00  0.1771033265E+03  0.2278611426E+03  0.6165147802E+02         1
       4      30  0.1200000000E+02         6    1         6       159  0.4400507587E+00  0.9055631705E+00  0.3166700000E+00  0.1828677664E+03  0.2235834476E+03  0.6165147318E+02         1
       4      30  0.1200000000E+02         7    1         7       158  0.6610499599E+00  0.5880933329E+00  0.3166700000E+00  0.1659894158E+03  0.2188214000E+03  0.6186436631E+02         1
       4      30  0.1200000000E+02         8    1         8       158  0.1177708431E+00  0.7687131524E+00  0.3166700000E+00  0.1542183683E+03  0.2215306973E+03  0.6186436631E+02         1
       4      30  0.1200000000E+02         9    1         9       188  0.6053696936E+00  0.8615141092E+00  0.3166700000E+00  0.1647830100E+03  0.2079227116E+03  0.6186436147E+02         1
       4      30  0.1200000000E+02        10    1        10       128  0.6343999758E+00  0.7512024586E+00  0.3166700000E+00  0.1654119995E+03  0.2362680369E+03  0.6186436631E+02         1
       4      30  0.1200000000E+02        11    1        11       428  0.3719163040E+00  0.4987762469E+00  0.3166700000E+00  0.1597248533E+03  0.8248164370E+02  0.6186440979E+02         1
       4      30  0.1200000000E+02        12    1        12       428  0.5881664562E+00  0.7276960858E+00  0.3166700000E+00  0.1644102732E+03  0.8591544129E+02  0.6186440979E+02         1
       4      30  0.1200000000E+02        13    1        13       458  0.1337797452E+00  0.2823067335E+00  0.3166700000E+00  0.1545652278E+03  0.6423460100E+02  0.6186442429E+02         1
       4      30  0.1200000000E+02        14    1        14       429  0.2980343760E+00  0.2956477915E+00  0.3166700000E+00  0.1797907448E+03  0.7943471687E+02  0.6165154083E+02         1
       4      30  0.1200000000E+02        15    1        15       459  0.1558734010E+00  0.2828277750E+00  0.3166700000E+00  0.1767105904E+03  0.6424241662E+02  0.6165156016E+02         1
       4      30  0.1200000000E+02        16    1        16       428  0.5383629231E-01  0.1149865502E+00  0.3166700000E+00  0.1528331197E+03  0.7672479825E+02  0.6186440979E+02         1
       4      30  0.1200000000E+02        17    1        17       428  0.3567662933E+00  0.4443062853E+00  0.3166700000E+00  0.1593966030E+03  0.8166459428E+02  0.6186440979E+02         1
       4      30  0.1200000000E+02        18    1        18       428  0.9301966970E+00  0.5936661801E+00  0.3166700000E+00  0.1718209284E+03  0.8390499270E+02  0.6186440979E+02         1
       4      30  0.1200000000E+02        19    1        19       458  0.2073258101E+00  0.7458266461E+00  0.3166700000E+00  0.1561587259E+03  0.7118739969E+02  0.6186442429E+02         1
       4      30  0.1200000000E+02        20    1        20       488  0.8083657363E+00  0.8254966979E+00  0.3166700000E+00  0.1691812576E+03  0.5738245047E+02  0.6186443395E+02         1
       4      30  0.1200000000E+02        21    1        21       336  0.4991200154E+00  0.5916310343E+00  0.3166700000E+00  0.1191476003E+03  0.1288744655E+03  0.6228786701E+02         1
       4      30  0.1200000000E+02        22    1        22       247  0.1276829200E+00  0.3689875477E+00  0.3166700000E+00  0.1327664633E+03  0.1705348132E+03  0.6207648631E+02         1
       4      30  0.1200000000E+02        23    1        23       307  0.2895229732E+00  0.8534797525E+00  0.3166700000E+00  0.1362729978E+03  0.1478021963E+03  0.6207649597E+02         1
       4      30  0.1200000000E+02        24    1        24       247  0.3251429815E+00  0.5848972303E+00  0.3166700000E+00  0.1370447646E+03  0.1737734585E+03  0.6207648631E+02         1
       4      30  0.1200000000E+02        25    1        25       307  0.2787929699E+00  0.6133800748E+00  0.3166700000E+00  0.1360405143E+03  0.1442007011E+03  0.6207649597E+02         1
       4      30  0.1200000000E+02        26    1        26       306  0.6005498523E+00  0.3938701373E+00  0.3166700000E+00  0.1213452468E+03  0.1409080521E+03  0.6228786701E+02         1
       4      30  0.1200000000E+02        27    1        27       246  0.9319895534E+00  0.4236976767E+00  0.3166700000E+00  0.1285264403E+03  0.1713554651E+03  0.6228786218E+02         1
       4      30  0.1200000000E+02        28    1        28       306  0.7511898523E+00  0.8430296421E+00  0.3166700000E+00  0.1246091135E+03  0.1476454446E+03  0.6228786701E+02         1
       4      30  0.1200000000E+02        29    1        29       336  0.8610300154E+00  0.6862809271E+00  0.3166700000E+00  0.1269889837E+03  0.1302942139E+03  0.6228786701E+02         1
       4      30  0.1200000000E+02        30    1        30       246  0.9953795534E+00  0.5589875142E+00  0.3166700000E+00  0.1298998903E+03  0.1733848127E+03  0.6228786218E+02         1
       4      30  0.1200000000E+02        31    1        31       337  0.3076328166E+00  0.9642209495E+00  0.3166700000E+00  0.1366653777E+03  0.1344633142E+03  0.6207650080E+02         1
       4      30  0.1200000000E+02        32    1        32       276  0.1992997135E+00  0.8675183555E+00  0.3166700000E+00  0.1126514938E+03  0.1630127753E+03  0.6228786218E+02         1
       4      30  0.1200000000E+02        33    1        33       337  0.4402328555E+00  0.8327711383E+00  0.3166700000E+00  0.1395383785E+03  0.1324915671E+03  0.6207650080E+02         1
       4      30  0.1200000000E+02        34    1        34       337  0.3966328427E+00  0.3953617665E+00  0.3166700000E+00  0.1385937116E+03  0.1259304265E+03  0.6207650080E+02         1
       4      30  0.1200000000E+02        35    1        35       278  0.4995484394E-01  0.9902384730E+00  0.3166700000E+00  0.1527490216E+03  0.1648535771E+03  0.6186436631E+02         1
       5      40  0.1600000000E+02         1    1         1       159  0.3235779395E+00  0.8079917409E+00  0.3166700000E+00  0.1803441887E+03  0.2221198761E+03  0.6165073872E+02         1
       5      40  0.1600000000E+02         2    1         2       159  0.8605463155E-01  0.7235014916E+00  0.3166700000E+00  0.1751978504E+03  0.2208525224E+03  0.6165073872E+02         1
       5      40  0.1600000000E+02         3    1         3       127  0.8778113369E+00  0.5750225404E+00  0.3166700000E+00  0.1490192456E+03  0.2336253381E+03  0.6207611424E+02         1
       5      40  0.1600000000E+02         4    1         4       158  0.2560030590E-01  0.4276428925E+00  0.3166700000E+00  0.1522213400E+03  0.2164146434E+03  0.6186383479E+02         1
       5      40  0.1600000000E+02         5    1         5       129  0.1969656096E+00  0.1907412081E+00  0.3166700000E+00  0.1776009215E+03  0.2278611181E+03  0.6165074838E+02         1
       5      40  0.1600000000E+02         6    1         6       159  0.4630198988E+00  0.9055615777E+00  0.3166700000E+00  0.1833654311E+03  0.2235834237E+03  0.6165073872E+02         1
       5      40  0.1600000000E+02         7    1         7       158  0.6839330652E+00  0.5880927396E+00  0.3166700000E+00  0.1664852164E+03  0.2188213911E+03  0.6186383479E+02         1
       5      40  0.1600000000E+02         8    1         8       158  0.1406500057E+00  0.7687125055E+00  0.3166700000E+00  0.1547140835E+03  0.2215306876E+03  0.6186383479E+02         1
       5      40  0.1600000000E+02         9    1         9       188  0.6282526994E+00  0.8615137435E+00  0.3166700000E+00  0.1652788085E+03  0.2079227062E+03  0.6186383479E+02         1
       5      40  0.1600000000E+02        10    1        10       128  0.6572825198E+00  0.7512017332E+00  0.3166700000E+00  0.1659077879E+03  0.2362680260E+03  0.6186383962E+02         1
       5      40  0.1600000000E+02        11    1        11       428  0.3947946723E+00  0.4987798431E+00  0.3166700000E+00  0.1602205512E+03  0.8248169765E+02  0.6186392659E+02         1
       5      40  0.1600000000E+02        12    1        12       428  0.6110462313E+00  0.7276997038E+00  0.3166700000E+00  0.1649060017E+03  0.8591549556E+02  0.6186392659E+02         1
       5      40  0.1600000000E+02        13    1        13       458  0.1566559080E+00  0.2823100974E+00  0.3166700000E+00  0.1550608780E+03  0.6423465146E+02  0.6186394592E+02         1
       5      40  0.1600000000E+02        14    1        14       429  0.3209985991E+00  0.2956534255E+00  0.3166700000E+00  0.1802883030E+03  0.7943480138E+02  0.6165086435E+02         1
       5      40  0.1600000000E+02        15    1        15       459  0.1788352565E+00  0.2828330574E+00  0.3166700000E+00  0.1772080972E+03  0.6424249586E+02  0.6165089334E+02         1
       5      40  0.1600000000E+02        16    1        16       428  0.7671259162E-01  0.1149901096E+00  0.3166700000E+00  0.1533287728E+03  0.7672485164E+02  0.6186392659E+02         1
       5      40  0.1600000000E+02        17    1        17       428  0.3796445631E+00  0.4443098762E+00  0.3166700000E+00  0.1598922989E+03  0.8166464814E+02  0.6186392659E+02         1
       5      40  0.1600000000E+02        18    1        18       428  0.9530786969E+00  0.5936697854E+00  0.3166700000E+00  0.1723167051E+03  0.8390504678E+02  0.6186392659E+02         1