#MODPATH basic data file for gui_ex1
9999 1e-30         HNOFLO HDRY
0                 DEFAULT IFACE COUNT
1               LAYTYP
INTERNAL    1  (I3)   30 IBOUND layer  1
 -1 
  1 
  1 
  1 
  1 
  1 
  1 
  1 
  1 
  1 
  1 
  1 
  1 
  1 
  1 
  1 
  1 
  1 
  1 
  1 
  1 
  1 
  1 
  1 
  1 
  1 
  1 
  1 
  1 
 -1 
 -1 
  1 
  1 
  1 
  1 
  1 
  1 
  1 
  1 
  1 
  1 
  1 
  1 
  1 
  1 
  1 
  1 
  1 
  1 
  1 
  1 
  1 
  1 
  1 
  1 
  1 
  1 
  1 
  1 
 -1 
 -1 
  1 
  1 
  1 
  1 
  1 
  1 
  1 
  1 
  1 
  1 
  1 
  1 
  1 
  1 
  1 
  1 
  1 
  1 
  1 
  1 
  1 
  1 
  1 
  1 
  1 
  1 
  1 
  1 
 -1 
 -1 
  1 
  1 
  1 
  1 
  1 
  1 
  1 
  1 
  1 
  1 
  1 
  1 
  1 
  1 
  1 
  1 
  1 
  1 
  1 
  1 
  1 
  1 
  1 
  1 
  1 
  1 
  1 
  1 
 -1 
 -1 
  1 
  1 
  1 
  1 
  1 
  1 
  1 
  1 
  1 
  1 
  1 
  1 
  1 
  1 
  1 
  1 
  1 
  1 
  1 
  1 
  1 
  1 
  1 
  1 
  1 
  1 
  1 
  1 
 -1 
 -1 
  1 
  1 
  1 
  1 
  1 
  1 
  1 
  1 
  1 
  1 
  1 
  1 
  1 
  1 
  1 
  1 
  1 
  1 
  1 
  1 
  1 
  1 
  1 
  1 
  1 
  1 
  1 
  1 
 -1 
 -1 
  1 
  1 
  1 
  1 
  1 
  1 
  1 
  1 
  1 
  1 
  1 
  1 
  1 
  1 
  1 
  1 
  1 
  1 
  1 
  1 
  1 
  1 
  1 
  1 
  1 
  1 
  1 
  1 
 -1 
 -1 
  1 
  1 
  1 
  1 
  1 
  1 
  1 
  1 
  1 
  1 
  1 
  1 
  1 
  1 
  1 
  1 
  1 
  1 
  1 
  1 
  1 
  1 
  1 
  1 
  1 
  1 
  1 
  1 
 -1 
 -1 
  1 
  1 
  1 
  1 
  1 
  1 
  1 
  1 
  1 
  1 
  1 
  1 
  1 
  1 
  1 
  1 
  1 
  1 
  1 
  1 
  1 
  1 
  1 
  1 
  1 
  1 
  1 
  1 
 -1 
 -1 
  1 
  1 
  1 
  1 
  1 
  1 
  1 
  1 
  1 
  1 
  1 
  1 
  1 
  1 
  1 
  1 
  1 
  1 
  1 
  1 
  1 
  1 
  1 
  1 
  1 
  1 
  1 
  1 
 -1 
 -1 
  1 
  1 
  1 
  1 
  1 
  1 
  1 
  1 
  1 
  1 
  1 
  1 
  1 
  1 
  1 
  1 
  1 
  1 
  1 
  1 
  1 
  1 
  1 
  1 
  1 
  1 
  1 
  1 
 -1 
 -1 
  1 
  1 
  1 
  1 
  1 
  1 
  1 
  1 
  1 
  1 
  1 
  1 
  1 
  1 
  1 
  1 
  1 
  1 
  1 
  1 
  1 
  1 
  1 
  1 
  1 
  1 
  1 
  1 
 -1 
 -1 
  1 
  1 
  1 
  1 
  1 
  1 
  1 
  1 
  1 
  1 
  1 
  1 
  1 
  1 
  1 
  1 
  1 
  1 
  1 
  1 
  1 
  1 
  1 
  1 
  1 
  1 
  1 
  1 
 -1 
 -1 
  1 
  1 
  1 
  1 
  1 
  1 
  1 
  1 
  1 
  1 
  1 
  1 
  1 
  1 
  1 
  1 
  1 
  1 
  1 
  1 
  1 
  1 
  1 
  1 
  1 
  1 
  1 
  1 
 -1 
 -1 
  1 
  1 
  1 
  1 
  1 
  1 
  1 
  1 
  1 
  1 
  1 
  1 
  1 
  1 
  1 
  1 
  1 
  1 
  1 
  1 
  1 
  1 
  1 
  1 
  1 
  1 
  1 
  1 
 -1 
 -1 
  1 
  1 
  1 
  1 
  1 
  1 
  1 
  1 
  1 
  1 
  1 
  1 
  1 
  1 
  1 
  1 
  1 
  1 
  1 
  1 
  1 
  1 
  1 
  1 
  1 
  1 
  1 
  1 
 -1 
 -1 
  1 
  1 
  1 
  1 
  1 
  1 
  1 
  1 
  1 
  1 
  1 
  1 
  1 
  1 
  1 
  1 
  1 
  1 
  1 
  1 
  1 
  1 
  1 
  1 
  1 
  1 
  1 
  1 
 -1 
 -1 
  1 
  1 
  1 
  1 
  1 
  1 
  1 
  1 
  1 
  1 
  1 
  1 
  1 
  1 
  1 
  1 
  1 
  1 
  1 
  1 
  1 
  1 
  1 
  1 
  1 
  1 
  1 
  1 
 -1 
 -1 
  1 
  1 
  1 
  1 
  1 
  1 
  1 
  1 
  1 
  1 
  1 
  1 
  1 
  1 
  1 
  1 
  1 
  1 
  1 
  1 
  1 
  1 
  1 
  1 
  1 
  1 
  1 
  1 
 -1 
 -1 
  1 
  1 
  1 
  1 
  1 
  1 
  1 
  1 
  1 
  1 
  1 
  1 
  1 
  1 
  1 
  1 
  1 
  1 
  1 
  1 
  1 
  1 
  1 
  1 
  1 
  1 
  1 
  1 
 -1 
CONSTANT 0.25 POROSITY LAYER 1
INTERNAL  1.0 (E16.9)   0 POROSITY layer  1
 2.500000000E-01
 2.500000000E-01
 2.500000000E-01
 2.500000000E-01
 2.500000000E-01
 2.500000000E-01
 2.500000000E-01
 2.500000000E-01
 2.500000000E-01
 2.500000000E-01
 2.500000000E-01
 2.500000000E-01
 2.500000000E-01
 2.500000000E-01
 2.500000000E-01
 2.500000000E-01
 2.500000000E-01
 2.500000000E-01
 2.500000000E-01
 2.500000000E-01
 2.500000000E-01
 2.500000000E-01
 2.500000000E-01
 2.500000000E-01
 2.500000000E-01
 2.500000000E-01
 2.500000000E-01
 2.500000000E-01
 2.500000000E-01
 2.500000000E-01
 2.500000000E-01
 2.500000000E-01
 2.500000000E-01
 2.500000000E-01
 2.500000000E-01
 2.500000000E-01
 2.500000000E-01
 2.500000000E-01
 2.500000000E-01
 2.500000000E-01
 2.500000000E-01
 2.500000000E-01
 2.500000000E-01
 2.500000000E-01
 2.500000000E-01
 2.500000000E-01
 2.500000000E-01
 2.500000000E-01
 2.500000000E-01
 2.500000000E-01
 2.500000000E-01
 2.500000000E-01
 2.500000000E-01
 2.500000000E-01
 2.500000000E-01
 2.500000000E-01
 2.500000000E-01
 2.500000000E-01
 2.500000000E-01
 2.500000000E-01
 2.500000000E-01
 2.500000000E-01
 2.500000000E-01
 2.500000000E-01
 2.500000000E-01
 2.500000000E-01
 2.500000000E-01
 2.500000000E-01
 2.500000000E-01
 2.500000000E-01
 2.500000000E-01
 2.500000000E-01
 2.500000000E-01
 2.500000000E-01
 2.500000000E-01
 2.500000000E-01
 2.500000000E-01
 2.500000000E-01
 2.500000000E-01
 2.500000000E-01
 2.500000000E-01
 2.500000000E-01
 2.500000000E-01
 2.500000000E-01
 2.500000000E-01
 2.500000000E-01
 2.500000000E-01
 2.500000000E-01
 2.500000000E-01
 2.500000000E-01
 2.500000000E-01
 2.500000000E-01
 2.500000000E-01
 2.500000000E-01
 2.500000000E-01
 2.500000000E-01
 2.500000000E-01
 2.500000000E-01
 2.500000000E-01
 2.500000000E-01
 2.500000000E-01
 2.500000000E-01
 2.500000000E-01
 2.500000000E-01
 2.500000000E-01
 2.500000000E-01
 2.500000000E-01
 2.500000000E-01
 2.500000000E-01
 2.500000000E-01
 2.500000000E-01
 2.500000000E-01
 2.500000000E-01
 2.500000000E-01
 2.500000000E-01
 2.500000000E-01
 2.500000000E-01
 2.500000000E-01
 2.500000000E-01
 2.500000000E-01
 2.500000000E-01
 2.500000000E-01
 2.500000000E-01
 2.500000000E-01
 2.500000000E-01
 2.500000000E-01
 2.500000000E-01
 2.500000000E-01
 2.500000000E-01
 2.500000000E-01
 2.500000000E-01
 2.500000000E-01
 2.500000000E-01
 2.500000000E-01
 2.500000000E-01
 2.500000000E-01
 2.500000000E-01
 2.500000000E-01
 2.500000000E-01
 2.500000000E-01
 2.500000000E-01
 2.500000000E-01
 2.500000000E-01
 2.500000000E-01
 2.500000000E-01
 2.500000000E-01
 2.500000000E-01
 2.500000000E-01
 2.500000000E-01
 2.500000000E-01
 2.500000000E-01
 2.500000000E-01
 2.500000000E-01
 2.500000000E-01
 2.500000000E-01
 2.500000000E-01
 2.500000000E-01
 2.500000000E-01
 2.500000000E-01
 2.500000000E-01
 2.500000000E-01
 2.500000000E-01
 2.500000000E-01
 2.500000000E-01
 2.500000000E-01
 2.500000000E-01
 2.500000000E-01
 2.500000000E-01
 2.500000000E-01
 2.500000000E-01
 2.500000000E-01
 2.500000000E-01
 2.500000000E-01
 2.500000000E-01
 2.500000000E-01
 2.500000000E-01
 2.500000000E-01
 2.500000000E-01
 2.500000000E-01
 2.500000000E-01
 2.500000000E-01
 2.500000000E-01
 2.500000000E-01
 2.500000000E-01
 2.500000000E-01
 2.500000000E-01
 2.500000000E-01
 2.500000000E-01
 2.500000000E-01
 2.500000000E-01
 2.500000000E-01
 2.500000000E-01
 2.500000000E-01
 2.500000000E-01
 2.500000000E-01
 2.500000000E-01
 2.500000000E-01
 2.500000000E-01
 2.500000000E-01
 2.500000000E-01
 2.500000000E-01
 2.500000000E-01
 2.500000000E-01
 2.500000000E-01
 2.500000000E-01
 2.500000000E-01
 2.500000000E-01
 2.500000000E-01
 2.500000000E-01
 2.500000000E-01
 2.500000000E-01
 2.500000000E-01
 2.500000000E-01
 2.500000000E-01
 2.500000000E-01
 2.500000000E-01
 2.500000000E-01
 2.500000000E-01
 2.500000000E-01
 2.500000000E-01
 2.500000000E-01
 2.500000000E-01
 2.500000000E-01
 2.500000000E-01
 2.500000000E-01
 2.500000000E-01
 2.500000000E-01
 2.500000000E-01
 2.500000000E-01
 2.500000000E-01
 2.500000000E-01
 2.500000000E-01
 2.500000000E-01
 2.500000000E-01
 2.500000000E-01
 2.500000000E-01
 2.500000000E-01
 2.500000000E-01
 2.500000000E-01
 2.500000000E-01
 2.500000000E-01
 2.500000000E-01
 2.500000000E-01
 2.500000000E-01
 2.500000000E-01
 2.500000000E-01
 2.500000000E-01
 2.500000000E-01
 2.500000000E-01
 2.500000000E-01
 2.500000000E-01
 2.500000000E-01
 2.500000000E-01
 2.500000000E-01
 2.500000000E-01
 2.500000000E-01
 2.500000000E-01
 2.500000000E-01
 2.500000000E-01
 2.500000000E-01
 2.500000000E-01
 2.500000000E-01
 2.500000000E-01
 2.500000000E-01
 2.500000000E-01
 2.500000000E-01
 2.500000000E-01
 2.500000000E-01
 2.500000000E-01
 2.500000000E-01
 2.500000000E-01
 2.500000000E-01
 2.500000000E-01
 2.500000000E-01
 2.500000000E-01
 2.500000000E-01
 2.500000000E-01
 2.500000000E-01
 2.500000000E-01
 2.500000000E-01
 2.500000000E-01
 2.500000000E-01
 2.500000000E-01
 2.500000000E-01
 2.500000000E-01
 2.500000000E-01
 2.500000000E-01
 2.500000000E-01
 2.500000000E-01
 2.500000000E-01
 2.500000000E-01
 2.500000000E-01
 2.500000000E-01
 2.500000000E-01
 2.500000000E-01
 2.500000000E-01
 2.500000000E-01
 2.500000000E-01
 2.500000000E-01
 2.500000000E-01
 2.500000000E-01
 2.500000000E-01
 2.500000000E-01
 2.500000000E-01
 2.500000000E-01
 2.500000000E-01
 2.500000000E-01
 2.500000000E-01
 2.500000000E-01
 2.500000000E-01
 2.500000000E-01
 2.500000000E-01
 2.500000000E-01
 2.500000000E-01
 2.500000000E-01
 2.500000000E-01
 2.500000000E-01
 2.500000000E-01
 2.500000000E-01
 2.500000000E-01
 2.500000000E-01
 2.500000000E-01
 2.500000000E-01
 2.500000000E-01
 2.500000000E-01
 2.500000000E-01
 2.500000000E-01
 2.500000000E-01
 2.500000000E-01
 2.500000000E-01
 2.500000000E-01
 2.500000000E-01
 2.500000000E-01
 2.500000000E-01
 2.500000000E-01
 2.500000000E-01
 2.500000000E-01
 2.500000000E-01
 2.500000000E-01
 2.500000000E-01
 2.500000000E-01
 2.500000000E-01
 2.500000000E-01
 2.500000000E-01
 2.500000000E-01
 2.500000000E-01
 2.500000000E-01
 2.500000000E-01
 2.500000000E-01
 2.500000000E-01
 2.500000000E-01
 2.500000000E-01
 2.500000000E-01
 2.500000000E-01
 2.500000000E-01
 2.500000000E-01
 2.500000000E-01
 2.500000000E-01
 2.500000000E-01
 2.500000000E-01
 2.500000000E-01
 2.500000000E-01
 2.500000000E-01
 2.500000000E-01
 2.500000000E-01
 2.500000000E-01
 2.500000000E-01
 2.500000000E-01
 2.500000000E-01
 2.500000000E-01
 2.500000000E-01
 2.500000000E-01
 2.500000000E-01
 2.500000000E-01
 2.500000000E-01
 2.500000000E-01
 2.500000000E-01
 2.500000000E-01
 2.500000000E-01
 2.500000000E-01
 2.500000000E-01
 2.500000000E-01
 2.500000000E-01
 2.500000000E-01
 2.500000000E-01
 2.500000000E-01
 2.500000000E-01
 2.500000000E-01
 2.500000000E-01
 2.500000000E-01
 2.500000000E-01
 2.500000000E-01
 2.500000000E-01
 2.500000000E-01
 2.500000000E-01
 2.500000000E-01
 2.500000000E-01
 2.500000000E-01
 2.500000000E-01
 2.500000000E-01
 2.500000000E-01
 2.500000000E-01
 2.500000000E-01
 2.500000000E-01
 2.500000000E-01
 2.500000000E-01
 2.500000000E-01
 2.500000000E-01
 2.500000000E-01
 2.500000000E-01
 2.500000000E-01
 2.500000000E-01
 2.500000000E-01
 2.500000000E-01
 2.500000000E-01
 2.500000000E-01
 2.500000000E-01
 2.500000000E-01
 2.500000000E-01
 2.500000000E-01
 2.500000000E-01
 2.500000000E-01
 2.500000000E-01
 2.500000000E-01
 2.500000000E-01
 2.500000000E-01
 2.500000000E-01
 2.500000000E-01
 2.500000000E-01
 2.500000000E-01
 2.500000000E-01
 2.500000000E-01
 2.500000000E-01
 2.500000000E-01
 2.500000000E-01
 2.500000000E-01
 2.500000000E-01
 2.500000000E-01
 2.500000000E-01
 2.500000000E-01
 2.500000000E-01
 2.500000000E-01
 2.500000000E-01
 2.500000000E-01
 2.500000000E-01
 2.500000000E-01
 2.500000000E-01
 2.500000000E-01
 2.500000000E-01
 2.500000000E-01
 2.500000000E-01
 2.500000000E-01
 2.500000000E-01
 2.500000000E-01
 2.500000000E-01
 2.500000000E-01
 2.500000000E-01
 2.500000000E-01
 2.500000000E-01
 2.500000000E-01
 2.500000000E-01
 2.500000000E-01
 2.500000000E-01
 2.500000000E-01
 2.500000000E-01
 2.500000000E-01
 2.500000000E-01
 2.500000000E-01
 2.500000000E-01
 2.500000000E-01
 2.500000000E-01
 2.500000000E-01
 2.500000000E-01
 2.500000000E-01
 2.500000000E-01
 2.500000000E-01
 2.500000000E-01
 2.500000000E-01
 2.500000000E-01
 2.500000000E-01
 2.500000000E-01
 2.500000000E-01
 2.500000000E-01
 2.500000000E-01
 2.500000000E-01
 2.500000000E-01
 2.500000000E-01
 2.500000000E-01
 2.500000000E-01
 2.500000000E-01
 2.500000000E-01
 2.500000000E-01
 2.500000000E-01
 2.500000000E-01
 2.500000000E-01
 2.500000000E-01
 2.500000000E-01
 2.500000000E-01
 2.500000000E-01
 2.500000000E-01
 2.500000000E-01
 2.500000000E-01
 2.500000000E-01
 2.500000000E-01
 2.500000000E-01
 2.500000000E-01
 2.500000000E-01
 2.500000000E-01
 2.500000000E-01
 2.500000000E-01
 2.500000000E-01
 2.500000000E-01
 2.500000000E-01
 2.500000000E-01
 2.500000000E-01
 2.500000000E-01
 2.500000000E-01
 2.500000000E-01
 2.500000000E-01
 2.500000000E-01
 2.500000000E-01
 2.500000000E-01
 2.500000000E-01
 2.500000000E-01
 2.500000000E-01
 2.500000000E-01
 2.500000000E-01
 2.500000000E-01
 2.500000000E-01
 2.500000000E-01
 2.500000000E-01
 2.500000000E-01
 2.500000000E-01
 2.500000000E-01
 2.500000000E-01
 2.500000000E-01
 2.500000000E-01
 2.500000000E-01
 2.500000000E-01
 2.500000000E-01
 2.500000000E-01
 2.500000000E-01
 2.500000000E-01
 2.500000000E-01
 2.500000000E-01
 2.500000000E-01
 2.500000000E-01
 2.500000000E-01
 2.500000000E-01
 2.500000000E-01
 2.500000000E-01
 2.500000000E-01
 2.500000000E-01
 2.500000000E-01
 2.500000000E-01
 2.500000000E-01
 2.500000000E-01
 2.500000000E-01
 2.500000000E-01
 2.500000000E-01
 2.500000000E-01
 2.500000000E-01
 2.500000000E-01
 2.500000000E-01
 2.500000000E-01
 2.500000000E-01
 2.500000000E-01
 2.500000000E-01
 2.500000000E-01
 2.500000000E-01
 2.500000000E-01
 2.500000000E-01
 2.500000000E-01
 2.500000000E-01
 2.500000000E-01
 2.500000000E-01
 2.500000000E-01
 2.500000000E-01
 2.500000000E-01
 2.500000000E-01
 2.500000000E-01
 2.500000000E-01
 2.500000000E-01
 2.500000000E-01
 2.500000000E-01
 2.500000000E-01
 2.500000000E-01
 2.500000000E-01
 2.500000000E-01
 2.500000000E-01
 2.500000000E-01
 2.500000000E-01
 2.500000000E-01
 2.500000000E-01
 2.500000000E-01
 2.500000000E-01
 2.500000000E-01
 2.500000000E-01
 2.500000000E-01
 2.500000000E-01
