MODPATH_ENDPOINT_FILE         7         0
    1        35        35        35   0.0000000000E+00
       0      35       0       0       0       0       0       0       0       0
         1
PG1             
END HEADER
         1         1         1    1  0.0000000000E+00  0.2000000000E+02       159    1  0.2317800000E+00  0.8080000000E+00  0.3166700000E+00  0.1783552333E+03  0.2221200000E+03  0.6165169546E+02    0    0       159    1  0.3466491791E+00  0.8079941295E+00  0.3166700000E+00  0.1808440655E+03  0.2221199119E+03  0.6164827923E+02    0    0
         2         1         2    1  0.0000000000E+00  0.2000000000E+02       158    1  0.9942800000E+00  0.7235100000E+00  0.3166700000E+00  0.1732094000E+03  0.2208526500E+03  0.6186448711E+02    0    0       159    1  0.1091181867E+00  0.7235042467E+00  0.3166700000E+00  0.1756975607E+03  0.2208525637E+03  0.6164827923E+02    0    0
         3         1         3    1  0.0000000000E+00  0.2000000000E+02       127    1  0.7866600000E+00  0.5750300000E+00  0.3166700000E+00  0.1470443000E+03  0.2336254500E+03  0.6207656362E+02    0    0       127    1  0.9006861602E+00  0.5750284242E+00  0.3166700000E+00  0.1495148668E+03  0.2336254264E+03  0.6207454384E+02    0    0
         4         1         4    1  0.0000000000E+00  0.2000000000E+02       157    1  0.9343600000E+00  0.4276500000E+00  0.3166700000E+00  0.1502444667E+03  0.2164147500E+03  0.6207652013E+02    0    0       158    1  0.4855718619E-01  0.4276481087E+00  0.3166700000E+00  0.1527187390E+03  0.2164147216E+03  0.6186185366E+02    0    0
         5         1         5    1  0.0000000000E+00  0.2000000000E+02       129    1  0.1051700000E+00  0.1907500000E+00  0.3166700000E+00  0.1756120167E+03  0.2278612500E+03  0.6165172928E+02    0    0       129    1  0.2200314420E+00  0.1907436606E+00  0.3166700000E+00  0.1781006812E+03  0.2278611549E+03  0.6164827923E+02    0    0
         6         1         6    1  0.0000000000E+00  0.2000000000E+02       159    1  0.3712200000E+00  0.9055700000E+00  0.3166700000E+00  0.1813764333E+03  0.2235835500E+03  0.6165169546E+02    0    0       159    1  0.4860957230E+00  0.9055639459E+00  0.3166700000E+00  0.1838654073E+03  0.2235834592E+03  0.6164827923E+02    0    0
         7         1         7    1  0.0000000000E+00  0.2000000000E+02       158    1  0.5924600000E+00  0.5881000000E+00  0.3166700000E+00  0.1645033000E+03  0.2188215000E+03  0.6186448711E+02    0    0       158    1  0.7069064814E+00  0.5880975147E+00  0.3166700000E+00  0.1669829738E+03  0.2188214627E+03  0.6186185366E+02    0    0
         8         1         8    1  0.0000000000E+00  0.2000000000E+02       158    1  0.4918200000E-01  0.7687200000E+00  0.3166700000E+00  0.1527322767E+03  0.2215308000E+03  0.6186448711E+02    0    0       158    1  0.1636092953E+00  0.7687172511E+00  0.3166700000E+00  0.1552115347E+03  0.2215307588E+03  0.6186185366E+02    0    0
         9         1         9    1  0.0000000000E+00  0.2000000000E+02       188    1  0.5367800000E+00  0.8615200000E+00  0.3166700000E+00  0.1632969000E+03  0.2079228000E+03  0.6186444362E+02    0    0       188    1  0.6512254480E+00  0.8615186783E+00  0.3166700000E+00  0.1657765514E+03  0.2079227802E+03  0.6186185366E+02    0    0
        10         1        10    1  0.0000000000E+00  0.2000000000E+02       128    1  0.5658100000E+00  0.7512100000E+00  0.3166700000E+00  0.1639258833E+03  0.2362681500E+03  0.6186453059E+02    0    0       128    1  0.6802542961E+00  0.7512066000E+00  0.3166700000E+00  0.1664055098E+03  0.2362680990E+03  0.6186184883E+02    0    0
        11         1        11    1  0.0000000000E+00  0.2000000000E+02       428    1  0.3033300000E+00  0.4987700000E+00  0.3166700000E+00  0.1582388167E+03  0.8248155000E+02  0.6186436631E+02    0    0       428    1  0.4177533233E+00  0.4987877140E+00  0.3166700000E+00  0.1607179887E+03  0.8248181571E+02  0.6186201795E+02    0    0
        12         1        12    1  0.0000000000E+00  0.2000000000E+02       428    1  0.5195800000E+00  0.7276900000E+00  0.3166700000E+00  0.1629242333E+03  0.8591535000E+02  0.6186436631E+02    0    0       428    1  0.6340102136E+00  0.7277078266E+00  0.3166700000E+00  0.1654035546E+03  0.8591561740E+02  0.6186201795E+02    0    0
        13         1        13    1  0.0000000000E+00  0.2000000000E+02       458    1  0.6519400000E-01  0.2823000000E+00  0.3166700000E+00  0.1530792033E+03  0.6423450000E+02  0.6186440496E+02    0    0       458    1  0.1796068622E+00  0.2823164778E+00  0.3166700000E+00  0.1555581487E+03  0.6423474717E+02  0.6186204694E+02    0    0
        14         1        14    1  0.0000000000E+00  0.2000000000E+02       429    1  0.2292100000E+00  0.2956400000E+00  0.3166700000E+00  0.1782995500E+03  0.7943460000E+02  0.6165159398E+02    0    0       429    1  0.3440620613E+00  0.2956662668E+00  0.3166700000E+00  0.1807880113E+03  0.7943499400E+02  0.6164849184E+02    0    0
        15         1        15    1  0.0000000000E+00  0.2000000000E+02       459    1  0.8705000000E-01  0.2828200000E+00  0.3166700000E+00  0.1752194167E+03  0.6424230000E+02  0.6165162298E+02    0    0       459    1  0.2018916238E+00  0.2828444678E+00  0.3166700000E+00  0.1777076519E+03  0.6424266702E+02  0.6164853050E+02    0    0
        16         1        16    1  0.0000000000E+00  0.2000000000E+02       427    1  0.9853000000E+00  0.1149800000E+00  0.3166700000E+00  0.1513481667E+03  0.7672470000E+02  0.6207643799E+02    0    0       428    1  0.9966297805E-01  0.1149973922E+00  0.3166700000E+00  0.1538260312E+03  0.7672496088E+02  0.6186201795E+02    0    0
        17         1        17    1  0.0000000000E+00  0.2000000000E+02       428    1  0.2881800000E+00  0.4443000000E+00  0.3166700000E+00  0.1579105667E+03  0.8166450000E+02  0.6186436631E+02    0    0       428    1  0.4026028405E+00  0.4443176871E+00  0.3166700000E+00  0.1603897282E+03  0.8166476531E+02  0.6186201795E+02    0    0
        18         1        18    1  0.0000000000E+00  0.2000000000E+02       428    1  0.8616100000E+00  0.5936600000E+00  0.3166700000E+00  0.1703348833E+03  0.8390490000E+02  0.6186436631E+02    0    0       428    1  0.9760511117E+00  0.5936777607E+00  0.3166700000E+00  0.1728144408E+03  0.8390516641E+02  0.6186201795E+02    0    0
        19         1        19    1  0.0000000000E+00  0.2000000000E+02       458    1  0.1387400000E+00  0.7458200000E+00  0.3166700000E+00  0.1546727000E+03  0.7118730000E+02  0.6186440496E+02    0    0       458    1  0.2531551140E+00  0.7458371176E+00  0.3166700000E+00  0.1571516941E+03  0.7118755676E+02  0.6186204694E+02    0    0
        20         1        20    1  0.0000000000E+00  0.2000000000E+02       488    1  0.7397800000E+00  0.8254900000E+00  0.3166700000E+00  0.1676952333E+03  0.5738235000E+02  0.6186445328E+02    0    0       488    1  0.8542099408E+00  0.8255056864E+00  0.3166700000E+00  0.1701745487E+03  0.5738258530E+02  0.6186207110E+02    0    0
        21         1        21    1  0.0000000000E+00  0.2000000000E+02       336    1  0.4310000000E+00  0.5916300000E+00  0.3166700000E+00  0.1176716667E+03  0.1288744500E+03  0.6228773171E+02    0    0       336    1  0.5446035387E+00  0.5916366756E+00  0.3166700000E+00  0.1201330767E+03  0.1288745501E+03  0.6228644157E+02    0    0
        22         1        22    1  0.0000000000E+00  0.2000000000E+02       247    1  0.5933000000E-01  0.3689900000E+00  0.3166700000E+00  0.1312854833E+03  0.1705348500E+03  0.6207640899E+02    0    0       247    1  0.1733376185E+00  0.3689941649E+00  0.3166700000E+00  0.1337556484E+03  0.1705349125E+03  0.6207456317E+02    0    0
        23         1        23    1  0.0000000000E+00  0.2000000000E+02       307    1  0.2211700000E+00  0.8534800000E+00  0.3166700000E+00  0.1347920167E+03  0.1478022000E+03  0.6207637517E+02    0    0       307    1  0.3351801482E+00  0.8534873894E+00  0.3166700000E+00  0.1372622365E+03  0.1478023108E+03  0.6207459216E+02    0    0
        24         1        24    1  0.0000000000E+00  0.2000000000E+02       247    1  0.2567900000E+00  0.5849000000E+00  0.3166700000E+00  0.1355637833E+03  0.1737735000E+03  0.6207640899E+02    0    0       247    1  0.3708029657E+00  0.5849036738E+00  0.3166700000E+00  0.1380340643E+03  0.1737735551E+03  0.6207456317E+02    0    0
        25         1        25    1  0.0000000000E+00  0.2000000000E+02       307    1  0.2104400000E+00  0.6133800000E+00  0.3166700000E+00  0.1345595333E+03  0.1442007000E+03  0.6207637517E+02    0    0       307    1  0.3244498606E+00  0.6133878557E+00  0.3166700000E+00  0.1370297470E+03  0.1442008178E+03  0.6207459216E+02    0    0
        26         1        26    1  0.0000000000E+00  0.2000000000E+02       306    1  0.5324300000E+00  0.3938700000E+00  0.3166700000E+00  0.1198693167E+03  0.1409080500E+03  0.6228772688E+02    0    0       306    1  0.6460367154E+00  0.3938757627E+00  0.3166700000E+00  0.1223307955E+03  0.1409081364E+03  0.6228643191E+02    0    0
        27         1        27    1  0.0000000000E+00  0.2000000000E+02       246    1  0.8638700000E+00  0.4237000000E+00  0.3166700000E+00  0.1270505167E+03  0.1713555000E+03  0.6228774138E+02    0    0       246    1  0.9774847329E+00  0.4237029631E+00  0.3166700000E+00  0.1295121692E+03  0.1713555444E+03  0.6228641258E+02    0    0
        28         1        28    1  0.0000000000E+00  0.2000000000E+02       306    1  0.6830700000E+00  0.8430300000E+00  0.3166700000E+00  0.1231331833E+03  0.1476454500E+03  0.6228772688E+02    0    0       306    1  0.7966796117E+00  0.8430351434E+00  0.3166700000E+00  0.1255947249E+03  0.1476455272E+03  0.6228643191E+02    0    0
        29         1        29    1  0.0000000000E+00  0.2000000000E+02       336    1  0.7929100000E+00  0.6862800000E+00  0.3166700000E+00  0.1255130500E+03  0.1302942000E+03  0.6228773171E+02    0    0       336    1  0.9065203324E+00  0.6862865899E+00  0.3166700000E+00  0.1279746072E+03  0.1302942988E+03  0.6228644157E+02    0    0
        30         1        30    1  0.0000000000E+00  0.2000000000E+02       246    1  0.9272600000E+00  0.5589900000E+00  0.3166700000E+00  0.1284239667E+03  0.1733848500E+03  0.6228774138E+02    0    0       247    1  0.4101546471E-01  0.5589933941E+00  0.3166700000E+00  0.1308886684E+03  0.1733849009E+03  0.6207456317E+02    0    0
        31         1        31    1  0.0000000000E+00  0.2000000000E+02       337    1  0.2392800000E+00  0.9642200000E+00  0.3166700000E+00  0.1351844000E+03  0.1344633000E+03  0.6207637517E+02    0    0       337    1  0.3532891664E+00  0.9642291069E+00  0.3166700000E+00  0.1376545986E+03  0.1344634366E+03  0.6207460666E+02    0    0
        32         1        32    1  0.0000000000E+00  0.2000000000E+02       276    1  0.1311800000E+00  0.8675200000E+00  0.3166700000E+00  0.1111755667E+03  0.1630128000E+03  0.6228773171E+02    0    0       276    1  0.2447798275E+00  0.8675236935E+00  0.3166700000E+00  0.1136368963E+03  0.1630128554E+03  0.6228642224E+02    0    0
        33         1        33    1  0.0000000000E+00  0.2000000000E+02       337    1  0.3718800000E+00  0.8327700000E+00  0.3166700000E+00  0.1380574000E+03  0.1324915500E+03  0.6207637517E+02    0    0       337    1  0.4858926588E+00  0.8327793271E+00  0.3166700000E+00  0.1405276743E+03  0.1324916899E+03  0.6207460666E+02    0    0
        34         1        34    1  0.0000000000E+00  0.2000000000E+02       337    1  0.3282800000E+00  0.3953600000E+00  0.3166700000E+00  0.1371127333E+03  0.1259304000E+03  0.6207637517E+02    0    0       337    1  0.4422915105E+00  0.3953700599E+00  0.3166700000E+00  0.1395829827E+03  0.1259305509E+03  0.6207460666E+02    0    0
        35         1        35    1  0.0000000000E+00  0.2000000000E+02       277    1  0.9814300000E+00  0.9902400000E+00  0.3166700000E+00  0.1512643167E+03  0.1648536000E+03  0.6207638483E+02    0    0       278    1  0.9579085737E-01  0.9902465199E+00  0.3166700000E+00  0.1537421352E+03  0.1648536978E+03  0.6186188749E+02    0    0
