MODPATH_TIMESERIES_FILE         7         0
    1   0.0000000000E+00
END HEADER
       0       1  0.0000000000E+00         1    1         1       159  0.2317800000E+00  0.8080000000E+00  0.3166700000E+00  0.1783552333E+03  0.2221200000E+03  0.6165169546E+02         1
       0       1  0.0000000000E+00         2    1         2       158  0.9942800000E+00  0.7235100000E+00  0.3166700000E+00  0.1732094000E+03  0.2208526500E+03  0.6186448711E+02         1
       0       1  0.0000000000E+00         3    1         3       127  0.7866600000E+00  0.5750300000E+00  0.3166700000E+00  0.1470443000E+03  0.2336254500E+03  0.6207656362E+02         1
       0       1  0.0000000000E+00         4    1         4       157  0.9343600000E+00  0.4276500000E+00  0.3166700000E+00  0.1502444667E+03  0.2164147500E+03  0.6207652013E+02         1
       0       1  0.0000000000E+00         5    1         5       129  0.1051700000E+00  0.1907500000E+00  0.3166700000E+00  0.1756120167E+03  0.2278612500E+03  0.6165172928E+02         1
       0       1  0.0000000000E+00         6    1         6       159  0.3712200000E+00  0.9055700000E+00  0.3166700000E+00  0.1813764333E+03  0.2235835500E+03  0.6165169546E+02         1
       0       1  0.0000000000E+00         7    1         7       158  0.5924600000E+00  0.5881000000E+00  0.3166700000E+00  0.1645033000E+03  0.2188215000E+03  0.6186448711E+02         1
       0       1  0.0000000000E+00         8    1         8       158  0.4918200000E-01  0.7687200000E+00  0.3166700000E+00  0.1527322767E+03  0.2215308000E+03  0.6186448711E+02         1
       0       1  0.0000000000E+00         9    1         9       188  0.5367800000E+00  0.8615200000E+00  0.3166700000E+00  0.1632969000E+03  0.2079228000E+03  0.6186444362E+02         1
       0       1  0.0000000000E+00        10    1        10       128  0.5658100000E+00  0.7512100000E+00  0.3166700000E+00  0.1639258833E+03  0.2362681500E+03  0.6186453059E+02         1
       0       1  0.0000000000E+00        11    1        11       428  0.3033300000E+00  0.4987700000E+00  0.3166700000E+00  0.1582388167E+03  0.8248155000E+02  0.6186436631E+02         1
       0       1  0.0000000000E+00        12    1        12       428  0.5195800000E+00  0.7276900000E+00  0.3166700000E+00  0.1629242333E+03  0.8591535000E+02  0.6186436631E+02         1
       0       1  0.0000000000E+00        13    1        13       458  0.6519400000E-01  0.2823000000E+00  0.3166700000E+00  0.1530792033E+03  0.6423450000E+02  0.6186440496E+02         1
       0       1  0.0000000000E+00        14    1        14       429  0.2292100000E+00  0.2956400000E+00  0.3166700000E+00  0.1782995500E+03  0.7943460000E+02  0.6165159398E+02         1
       0       1  0.0000000000E+00        15    1        15       459  0.8705000000E-01  0.2828200000E+00  0.3166700000E+00  0.1752194167E+03  0.6424230000E+02  0.6165162298E+02         1
       0       1  0.0000000000E+00        16    1        16       427  0.9853000000E+00  0.1149800000E+00  0.3166700000E+00  0.1513481667E+03  0.7672470000E+02  0.6207643799E+02         1
       0       1  0.0000000000E+00        17    1        17       428  0.2881800000E+00  0.4443000000E+00  0.3166700000E+00  0.1579105667E+03  0.8166450000E+02  0.6186436631E+02         1
       0       1  0.0000000000E+00        18    1        18       428  0.8616100000E+00  0.5936600000E+00  0.3166700000E+00  0.1703348833E+03  0.8390490000E+02  0.6186436631E+02         1
       0       1  0.0000000000E+00        19    1        19       458  0.1387400000E+00  0.7458200000E+00  0.3166700000E+00  0.1546727000E+03  0.7118730000E+02  0.6186440496E+02         1
       0       1  0.0000000000E+00        20    1        20       488  0.7397800000E+00  0.8254900000E+00  0.3166700000E+00  0.1676952333E+03  0.5738235000E+02  0.6186445328E+02         1
       0       1  0.0000000000E+00        21    1        21       336  0.4310000000E+00  0.5916300000E+00  0.3166700000E+00  0.1176716667E+03  0.1288744500E+03  0.6228773171E+02         1
       0       1  0.0000000000E+00        22    1        22       247  0.5933000000E-01  0.3689900000E+00  0.3166700000E+00  0.1312854833E+03  0.1705348500E+03  0.6207640899E+02         1
       0       1  0.0000000000E+00        23    1        23       307  0.2211700000E+00  0.8534800000E+00  0.3166700000E+00  0.1347920167E+03  0.1478022000E+03  0.6207637517E+02         1
       0       1  0.0000000000E+00        24    1        24       247  0.2567900000E+00  0.5849000000E+00  0.3166700000E+00  0.1355637833E+03  0.1737735000E+03  0.6207640899E+02         1
       0       1  0.0000000000E+00        25    1        25       307  0.2104400000E+00  0.6133800000E+00  0.3166700000E+00  0.1345595333E+03  0.1442007000E+03  0.6207637517E+02         1
       0       1  0.0000000000E+00        26    1        26       306  0.5324300000E+00  0.3938700000E+00  0.3166700000E+00  0.1198693167E+03  0.1409080500E+03  0.6228772688E+02         1
       0       1  0.0000000000E+00        27    1        27       246  0.8638700000E+00  0.4237000000E+00  0.3166700000E+00  0.1270505167E+03  0.1713555000E+03  0.6228774138E+02         1
       0       1  0.0000000000E+00        28    1        28       306  0.6830700000E+00  0.8430300000E+00  0.3166700000E+00  0.1231331833E+03  0.1476454500E+03  0.6228772688E+02         1
       0       1  0.0000000000E+00        29    1        29       336  0.7929100000E+00  0.6862800000E+00  0.3166700000E+00  0.1255130500E+03  0.1302942000E+03  0.6228773171E+02         1
       0       1  0.0000000000E+00        30    1        30       246  0.9272600000E+00  0.5589900000E+00  0.3166700000E+00  0.1284239667E+03  0.1733848500E+03  0.6228774138E+02         1
       0       1  0.0000000000E+00        31    1        31       337  0.2392800000E+00  0.9642200000E+00  0.3166700000E+00  0.1351844000E+03  0.1344633000E+03  0.6207637517E+02         1
       0       1  0.0000000000E+00        32    1        32       276  0.1311800000E+00  0.8675200000E+00  0.3166700000E+00  0.1111755667E+03  0.1630128000E+03  0.6228773171E+02         1
       0       1  0.0000000000E+00        33    1        33       337  0.3718800000E+00  0.8327700000E+00  0.3166700000E+00  0.1380574000E+03  0.1324915500E+03  0.6207637517E+02         1
       0       1  0.0000000000E+00        34    1        34       337  0.3282800000E+00  0.3953600000E+00  0.3166700000E+00  0.1371127333E+03  0.1259304000E+03  0.6207637517E+02         1
       0       1  0.0000000000E+00        35    1        35       277  0.9814300000E+00  0.9902400000E+00  0.3166700000E+00  0.1512643167E+03  0.1648536000E+03  0.6207638483E+02         1
       2      20  0.4000000000E+01         1    1         1       159  0.2547210107E+00  0.8079988822E+00  0.3166700000E+00  0.1788522886E+03  0.2221199832E+03  0.6165173895E+02         1
       2      20  0.4000000000E+01         2    1         2       159  0.1720116342E-01  0.7235088550E+00  0.3166700000E+00  0.1737060252E+03  0.2208526328E+03  0.6165173895E+02         1
       2      20  0.4000000000E+01         3    1         3       127  0.8094434245E+00  0.5750287525E+00  0.3166700000E+00  0.1475379409E+03  0.2336254313E+03  0.6207658295E+02         1
       2      20  0.4000000000E+01         4    1         4       157  0.9571434634E+00  0.4276487452E+00  0.3166700000E+00  0.1507381084E+03  0.2164147312E+03  0.6207658295E+02         1
       2      20  0.4000000000E+01         5    1         5       129  0.1281110432E+00  0.1907488298E+00  0.3166700000E+00  0.1761090726E+03  0.2278612324E+03  0.6165173895E+02         1
       2      20  0.4000000000E+01         6    1         6       159  0.3941610117E+00  0.9055688656E+00  0.3166700000E+00  0.1818734886E+03  0.2235835330E+03  0.6165173895E+02         1
       2      20  0.4000000000E+01         7    1         7       158  0.6153217608E+00  0.5880988194E+00  0.3166700000E+00  0.1649986382E+03  0.2188214823E+03  0.6186452576E+02         1
       2      20  0.4000000000E+01         8    1         8       158  0.7204375650E-01  0.7687188024E+00  0.3166700000E+00  0.1532276147E+03  0.2215307820E+03  0.6186452576E+02         1
       2      20  0.4000000000E+01         9    1         9       188  0.5596416946E+00  0.8615189220E+00  0.3166700000E+00  0.1637922367E+03  0.2079227838E+03  0.6186452576E+02         1
       2      20  0.4000000000E+01        10    1        10       128  0.5886717842E+00  0.7512087598E+00  0.3166700000E+00  0.1644212220E+03  0.2362681314E+03  0.6186453059E+02         1
       2      20  0.4000000000E+01        11    1        11       428  0.3261908582E+00  0.4987711277E+00  0.3166700000E+00  0.1587341353E+03  0.8248156692E+02  0.6186454509E+02         1
       2      20  0.4000000000E+01        12    1        12       428  0.5424408566E+00  0.7276911250E+00  0.3166700000E+00  0.1634195519E+03  0.8591536687E+02  0.6186454509E+02         1
       2      20  0.4000000000E+01        13    1        13       458  0.8805478066E-01  0.2823011486E+00  0.3166700000E+00  0.1535745203E+03  0.6423451723E+02  0.6186454509E+02         1
       2      20  0.4000000000E+01        14    1        14       429  0.2521496251E+00  0.2956414815E+00  0.3166700000E+00  0.1787965752E+03  0.7943462222E+02  0.6165176311E+02         1
       2      20  0.4000000000E+01        15    1        15       459  0.1099894611E+00  0.2828214086E+00  0.3166700000E+00  0.1757164383E+03  0.6424232113E+02  0.6165177277E+02         1
       2      20  0.4000000000E+01        16    1        16       428  0.8110650176E-02  0.1149809994E+00  0.3166700000E+00  0.1518423974E+03  0.7672471499E+02  0.6186454509E+02         1
       2      20  0.4000000000E+01        17    1        17       428  0.3110408583E+00  0.4443011284E+00  0.3166700000E+00  0.1584058853E+03  0.8166451693E+02  0.6186454509E+02         1
       2      20  0.4000000000E+01        18    1        18       428  0.8844708542E+00  0.5936611266E+00  0.3166700000E+00  0.1708302018E+03  0.8390491690E+02  0.6186454509E+02         1
       2      20  0.4000000000E+01        19    1        19       458  0.1616007807E+00  0.7458211390E+00  0.3166700000E+00  0.1551680169E+03  0.7118731709E+02  0.6186454509E+02         1
       2      20  0.4000000000E+01        20    1        20       488  0.7626406886E+00  0.8254911572E+00  0.3166700000E+00  0.1681905483E+03  0.5738236736E+02  0.6186454992E+02         1
       2      20  0.4000000000E+01        21    1        21       336  0.4537060823E+00  0.5916302190E+00  0.3166700000E+00  0.1181636318E+03  0.1288744533E+03  0.6228791050E+02         1
       2      20  0.4000000000E+01        22    1        22       247  0.8211343233E-01  0.3689896203E+00  0.3166700000E+00  0.1317791244E+03  0.1705348443E+03  0.6207657811E+02         1
       2      20  0.4000000000E+01        23    1        23       307  0.2439533098E+00  0.8534800399E+00  0.3166700000E+00  0.1352856550E+03  0.1478022006E+03  0.6207657811E+02         1
       2      20  0.4000000000E+01        24    1        24       247  0.2795734312E+00  0.5848995574E+00  0.3166700000E+00  0.1360574243E+03  0.1737734934E+03  0.6207657811E+02         1
       2      20  0.4000000000E+01        25    1        25       307  0.2332233099E+00  0.6133801048E+00  0.3166700000E+00  0.1350531717E+03  0.1442007016E+03  0.6207657811E+02         1
       2      20  0.4000000000E+01        26    1        26       306  0.5551360931E+00  0.3938700247E+00  0.3166700000E+00  0.1203612820E+03  0.1409080504E+03  0.6228790567E+02         1
       2      20  0.4000000000E+01        27    1        27       246  0.8865761080E+00  0.4236995042E+00  0.3166700000E+00  0.1275424823E+03  0.1713554926E+03  0.6228790567E+02         1
       2      20  0.4000000000E+01        28    1        28       306  0.7057760931E+00  0.8430299178E+00  0.3166700000E+00  0.1236251487E+03  0.1476454488E+03  0.6228790567E+02         1
       2      20  0.4000000000E+01        29    1        29       336  0.8156160823E+00  0.6862801957E+00  0.3166700000E+00  0.1260050151E+03  0.1302942029E+03  0.6228791050E+02         1
       2      20  0.4000000000E+01        30    1        30       246  0.9499661080E+00  0.5589894757E+00  0.3166700000E+00  0.1289159323E+03  0.1733848421E+03  0.6228790567E+02         1
       2      20  0.4000000000E+01        31    1        31       337  0.2620632356E+00  0.9642202813E+00  0.3166700000E+00  0.1356780368E+03  0.1344633042E+03  0.6207657811E+02         1
       2      20  0.4000000000E+01        32    1        32       276  0.1538861009E+00  0.8675196315E+00  0.3166700000E+00  0.1116675322E+03  0.1630127945E+03  0.6228790567E+02         1
       2      20  0.4000000000E+01        33    1        33       337  0.3946632348E+00  0.8327703202E+00  0.3166700000E+00  0.1385510368E+03  0.1324915548E+03  0.6207657811E+02         1
       2      20  0.4000000000E+01        34    1        34       337  0.3510632350E+00  0.3953604497E+00  0.3166700000E+00  0.1376063701E+03  0.1259304067E+03  0.6207657811E+02         1
       2      20  0.4000000000E+01        35    1        35       278  0.4227801403E-02  0.9902397723E+00  0.3166700000E+00  0.1517582690E+03  0.1648535966E+03  0.6186452576E+02         1
       3      30  0.8000000000E+01         1    1         1       159  0.2776682972E+00  0.8079981310E+00  0.3166700000E+00  0.1793494798E+03  0.2221199720E+03  0.6165147318E+02         1
       3      30  0.8000000000E+01         2    1         2       159  0.4014763898E-01  0.7235081132E+00  0.3166700000E+00  0.1742031988E+03  0.2208526217E+03  0.6165147318E+02         1
       3      30  0.8000000000E+01         3    1         3       127  0.8322294918E+00  0.5750284937E+00  0.3166700000E+00  0.1480316390E+03  0.2336254274E+03  0.6207648631E+02         1
       3      30  0.8000000000E+01         4    1         4       157  0.9799296378E+00  0.4276485028E+00  0.3166700000E+00  0.1512318088E+03  0.2164147275E+03  0.6207648631E+02         1
       3      30  0.8000000000E+01         5    1         5       129  0.1510576651E+00  0.1907480453E+00  0.3166700000E+00  0.1766062494E+03  0.2278612207E+03  0.6165147802E+02         1
       3      30  0.8000000000E+01         6    1         6       159  0.4171087743E+00  0.9055681035E+00  0.3166700000E+00  0.1823706901E+03  0.2235835216E+03  0.6165147318E+02         1
       3      30  0.8000000000E+01         7    1         7       158  0.6381879374E+00  0.5880984629E+00  0.3166700000E+00  0.1654940720E+03  0.2188214769E+03  0.6186436631E+02         1
       3      30  0.8000000000E+01         8    1         8       158  0.9490904872E-01  0.7687184205E+00  0.3166700000E+00  0.1537230294E+03  0.2215307763E+03  0.6186436631E+02         1
       3      30  0.8000000000E+01         9    1         9       188  0.5825078663E+00  0.8615186747E+00  0.3166700000E+00  0.1642876704E+03  0.2079227801E+03  0.6186436147E+02         1
       3      30  0.8000000000E+01        10    1        10       128  0.6115377964E+00  0.7512083249E+00  0.3166700000E+00  0.1649166523E+03  0.2362681249E+03  0.6186436631E+02         1
       3      30  0.8000000000E+01        11    1        11       428  0.3490551123E+00  0.4987726518E+00  0.3166700000E+00  0.1592295274E+03  0.8248158978E+02  0.6186440979E+02         1
       3      30  0.8000000000E+01        12    1        12       428  0.5653053038E+00  0.7276926583E+00  0.3166700000E+00  0.1639149483E+03  0.8591538987E+02  0.6186440979E+02         1
       3      30  0.8000000000E+01        13    1        13       458  0.1109185243E+00  0.2823025450E+00  0.3166700000E+00  0.1540699014E+03  0.6423453818E+02  0.6186442429E+02         1
       3      30  0.8000000000E+01        14    1        14       429  0.2750948492E+00  0.2956439912E+00  0.3166700000E+00  0.1792937217E+03  0.7943465987E+02  0.6165154083E+02         1
       3      30  0.8000000000E+01        15    1        15       459  0.1329338484E+00  0.2828237090E+00  0.3166700000E+00  0.1762135667E+03  0.6424235563E+02  0.6165156016E+02         1
       3      30  0.8000000000E+01        16    1        16       428  0.3097462035E-01  0.1149825079E+00  0.3166700000E+00  0.1523377834E+03  0.7672473762E+02  0.6186440979E+02         1
       3      30  0.8000000000E+01        17    1        17       428  0.3339050989E+00  0.4443026502E+00  0.3166700000E+00  0.1589012771E+03  0.8166453975E+02  0.6186440979E+02         1
       3      30  0.8000000000E+01        18    1        18       428  0.9073356067E+00  0.5936626545E+00  0.3166700000E+00  0.1713256048E+03  0.8390493982E+02  0.6186440979E+02         1
       3      30  0.8000000000E+01        19    1        19       458  0.1844645828E+00  0.7458226047E+00  0.3166700000E+00  0.1556633993E+03  0.7118733907E+02  0.6186442429E+02         1
       3      30  0.8000000000E+01        20    1        20       488  0.7855044722E+00  0.8254924782E+00  0.3166700000E+00  0.1686859302E+03  0.5738238717E+02  0.6186443395E+02         1
       3      30  0.8000000000E+01        21    1        21       336  0.4764135387E+00  0.5916307269E+00  0.3166700000E+00  0.1186556267E+03  0.1288744609E+03  0.6228786701E+02         1
       3      30  0.8000000000E+01        22    1        22       247  0.1048991803E+00  0.3689898720E+00  0.3166700000E+00  0.1322728156E+03  0.1705348481E+03  0.6207648631E+02         1
       3      30  0.8000000000E+01        23    1        23       307  0.2667389991E+00  0.8534806600E+00  0.3166700000E+00  0.1357793450E+03  0.1478022099E+03  0.6207649597E+02         1
       3      30  0.8000000000E+01        24    1        24       247  0.3023592727E+00  0.5848997561E+00  0.3166700000E+00  0.1365511176E+03  0.1737734963E+03  0.6207648631E+02         1
       3      30  0.8000000000E+01        25    1        25       307  0.2560089940E+00  0.6133807557E+00  0.3166700000E+00  0.1355468615E+03  0.1442007113E+03  0.6207649597E+02         1
       3      30  0.8000000000E+01        26    1        26       306  0.5778436686E+00  0.3938704971E+00  0.3166700000E+00  0.1208532795E+03  0.1409080575E+03  0.6228786701E+02         1
       3      30  0.8000000000E+01        27    1        27       246  0.9092838534E+00  0.4236996497E+00  0.3166700000E+00  0.1280344835E+03  0.1713554947E+03  0.6228786218E+02         1
       3      30  0.8000000000E+01        28    1        28       306  0.7284836686E+00  0.8430303626E+00  0.3166700000E+00  0.1241171462E+03  0.1476454554E+03  0.6228786701E+02         1
       3      30  0.8000000000E+01        29    1        29       336  0.8383235387E+00  0.6862807009E+00  0.3166700000E+00  0.1264970100E+03  0.1302942105E+03  0.6228786701E+02         1
       3      30  0.8000000000E+01        30    1        30       246  0.9726738534E+00  0.5589895970E+00  0.3166700000E+00  0.1294079335E+03  0.1733848440E+03  0.6228786218E+02         1
       3      30  0.8000000000E+01        31    1        31       337  0.2848488150E+00  0.9642210171E+00  0.3166700000E+00  0.1361717243E+03  0.1344633153E+03  0.6207650080E+02         1
       3      30  0.8000000000E+01        32    1        32       276  0.1765937976E+00  0.8675198811E+00  0.3166700000E+00  0.1121595323E+03  0.1630127982E+03  0.6228786218E+02         1
       3      30  0.8000000000E+01        33    1        33       337  0.4174488751E+00  0.8327710792E+00  0.3166700000E+00  0.1390447256E+03  0.1324915662E+03  0.6207650080E+02         1
       3      30  0.8000000000E+01        34    1        34       337  0.3738488553E+00  0.3953612858E+00  0.3166700000E+00  0.1381000585E+03  0.1259304193E+03  0.6207650080E+02         1
       3      30  0.8000000000E+01        35    1        35       278  0.2709292686E-01  0.9902402357E+00  0.3166700000E+00  0.1522536801E+03  0.1648536035E+03  0.6186436631E+02         1
       4      40  0.1200000000E+02         1    1         1       159  0.3006351894E+00  0.8079965904E+00  0.3166700000E+00  0.1798470958E+03  0.2221199489E+03  0.6165073872E+02         1
       4      40  0.1200000000E+02         2    1         2       159  0.6311215319E-01  0.7235066047E+00  0.3166700000E+00  0.1747007633E+03  0.2208525991E+03  0.6165073872E+02         1
       4      40  0.1200000000E+02         3    1         3       127  0.8550280719E+00  0.5750282870E+00  0.3166700000E+00  0.1485256082E+03  0.2336254243E+03  0.6207611424E+02         1
       4      40  0.1200000000E+02         4    1         4       158  0.2738551286E-02  0.4276483219E+00  0.3166700000E+00  0.1517260019E+03  0.2164147248E+03  0.6186383479E+02         1
       4      40  0.1200000000E+02         5    1         5       129  0.1740227896E+00  0.1907464314E+00  0.3166700000E+00  0.1771038271E+03  0.2278611965E+03  0.6165074838E+02         1
       4      40  0.1200000000E+02         6    1         6       159  0.4400770627E+00  0.9055665257E+00  0.3166700000E+00  0.1828683364E+03  0.2235834979E+03  0.6165073872E+02         1
       4      40  0.1200000000E+02         7    1         7       158  0.6610703701E+00  0.5880978784E+00  0.3166700000E+00  0.1659898580E+03  0.2188214682E+03  0.6186383479E+02         1
       4      40  0.1200000000E+02         8    1         8       158  0.1177876062E+00  0.7687177844E+00  0.3166700000E+00  0.1542187315E+03  0.2215307668E+03  0.6186383479E+02         1
       4      40  0.1200000000E+02         9    1         9       188  0.6053902006E+00  0.8615183101E+00  0.3166700000E+00  0.1647834543E+03  0.2079227747E+03  0.6186383479E+02         1
       4      40  0.1200000000E+02        10    1        10       128  0.6344196773E+00  0.7512076061E+00  0.3166700000E+00  0.1654124263E+03  0.2362681141E+03  0.6186383962E+02         1
       4      40  0.1200000000E+02        11    1        11       428  0.3719328931E+00  0.4987761965E+00  0.3166700000E+00  0.1597252127E+03  0.8248164295E+02  0.6186392659E+02         1
       4      40  0.1200000000E+02        12    1        12       428  0.5881844646E+00  0.7276962240E+00  0.3166700000E+00  0.1644106634E+03  0.8591544336E+02  0.6186392659E+02         1
       4      40  0.1200000000E+02        13    1        13       458  0.1337941421E+00  0.2823058623E+00  0.3166700000E+00  0.1545655397E+03  0.6423458793E+02  0.6186394592E+02         1
       4      40  0.1200000000E+02        14    1        14       429  0.2980583016E+00  0.2956495576E+00  0.3166700000E+00  0.1797912632E+03  0.7943474336E+02  0.6165086435E+02         1
       4      40  0.1200000000E+02        15    1        15       459  0.1558949758E+00  0.2828289258E+00  0.3166700000E+00  0.1767110578E+03  0.6424243389E+02  0.6165089334E+02         1
       4      40  0.1200000000E+02        16    1        16       428  0.5385037144E-01  0.1149860174E+00  0.3166700000E+00  0.1528334247E+03  0.7672479026E+02  0.6186392659E+02         1
       4      40  0.1200000000E+02        17    1        17       428  0.3567827830E+00  0.4443061899E+00  0.3166700000E+00  0.1593969603E+03  0.8166459285E+02  0.6186392659E+02         1
       4      40  0.1200000000E+02        18    1        18       428  0.9302169501E+00  0.5936662079E+00  0.3166700000E+00  0.1718213673E+03  0.8390499312E+02  0.6186392659E+02         1
       4      40  0.1200000000E+02        19    1        19       458  0.2073406420E+00  0.7458260394E+00  0.3166700000E+00  0.1561590472E+03  0.7118739059E+02  0.6186394592E+02         1
       4      40  0.1200000000E+02        20    1        20       488  0.8083833251E+00  0.8254956356E+00  0.3166700000E+00  0.1691816387E+03  0.5738243453E+02  0.6186396525E+02         1
       4      40  0.1200000000E+02        21    1        21       336  0.4991282243E+00  0.5916319296E+00  0.3166700000E+00  0.1191477782E+03  0.1288744789E+03  0.6228762541E+02         1
       4      40  0.1200000000E+02        22    1        22       247  0.1276944053E+00  0.3689905963E+00  0.3166700000E+00  0.1327667121E+03  0.1705348589E+03  0.6207611907E+02         1
       4      40  0.1200000000E+02        23    1        23       307  0.2895347002E+00  0.8534820547E+00  0.3166700000E+00  0.1362732518E+03  0.1478022308E+03  0.6207612874E+02         1
       4      40  0.1200000000E+02        24    1        24       247  0.3251555288E+00  0.5849003781E+00  0.3166700000E+00  0.1370450365E+03  0.1737735057E+03  0.6207611907E+02         1
       4      40  0.1200000000E+02        25    1        25       307  0.2788046394E+00  0.6133822375E+00  0.3166700000E+00  0.1360407672E+03  0.1442007336E+03  0.6207612874E+02         1
       4      40  0.1200000000E+02        26    1        26       306  0.6005589968E+00  0.3938715210E+00  0.3166700000E+00  0.1213454449E+03  0.1409080728E+03  0.6228761575E+02         1
       4      40  0.1200000000E+02        27    1        27       246  0.9320005767E+00  0.4237001916E+00  0.3166700000E+00  0.1285266792E+03  0.1713555029E+03  0.6228760608E+02         1
       4      40  0.1200000000E+02        28    1        28       306  0.7511994789E+00  0.8430312667E+00  0.3166700000E+00  0.1246093220E+03  0.1476454690E+03  0.6228761575E+02         1
       4      40  0.1200000000E+02        29    1        29       336  0.8610392720E+00  0.6862818865E+00  0.3166700000E+00  0.1269891842E+03  0.1302942283E+03  0.6228762541E+02         1
       4      40  0.1200000000E+02        30    1        30       246  0.9953907855E+00  0.5589901108E+00  0.3166700000E+00  0.1299001337E+03  0.1733848517E+03  0.6228760608E+02         1
       4      40  0.1200000000E+02        31    1        31       337  0.3076442995E+00  0.9642227314E+00  0.3166700000E+00  0.1366656265E+03  0.1344633410E+03  0.6207614323E+02         1
       4      40  0.1200000000E+02        32    1        32       276  0.1993080076E+00  0.8675205417E+00  0.3166700000E+00  0.1126516735E+03  0.1630128081E+03  0.6228761091E+02         1
       4      40  0.1200000000E+02        33    1        33       337  0.4402450327E+00  0.8327728293E+00  0.3166700000E+00  0.1395386424E+03  0.1324915924E+03  0.6207614323E+02         1
       4      40  0.1200000000E+02        34    1        34       337  0.3966447916E+00  0.3953631549E+00  0.3166700000E+00  0.1385939705E+03  0.1259304473E+03  0.6207614323E+02         1
       4      40  0.1200000000E+02        35    1        35       278  0.4997113285E-01  0.9902414236E+00  0.3166700000E+00  0.1527493745E+03  0.1648536214E+03  0.6186384445E+02         1
       5      50  0.1600000000E+02         1    1         1       159  0.3236284916E+00  0.8079951108E+00  0.3166700000E+00  0.1803452840E+03  0.2221199267E+03  0.6164962736E+02         1
       5      50  0.1600000000E+02         2    1         2       159  0.8610185936E-01  0.7235051733E+00  0.3166700000E+00  0.1751988736E+03  0.2208525776E+03  0.6164962736E+02         1
       5      50  0.1600000000E+02         3    1         3       127  0.8778458863E+00  0.5750281974E+00  0.3166700000E+00  0.1490199942E+03  0.2336254230E+03  0.6207544259E+02         1
       5      50  0.1600000000E+02         4    1         4       158  0.2563633224E-01  0.4276479578E+00  0.3166700000E+00  0.1522221205E+03  0.2164147194E+03  0.6186296019E+02         1
       5      50  0.1600000000E+02         5    1         5       129  0.1970136293E+00  0.1907448104E+00  0.3166700000E+00  0.1776019620E+03  0.2278611722E+03  0.6164963219E+02         1
       5      50  0.1600000000E+02         6    1         6       159  0.4630724759E+00  0.9055649905E+00  0.3166700000E+00  0.1833665703E+03  0.2235834749E+03  0.6164962736E+02         1
       5      50  0.1600000000E+02         7    1         7       158  0.6839758723E+00  0.5880974441E+00  0.3166700000E+00  0.1664861439E+03  0.2188214617E+03  0.6186296019E+02         1
       5      50  0.1600000000E+02         8    1         8       158  0.1406867365E+00  0.7687172709E+00  0.3166700000E+00  0.1547148793E+03  0.2215307591E+03  0.6186296019E+02         1
       5      50  0.1600000000E+02         9    1         9       188  0.6282953674E+00  0.8615182099E+00  0.3166700000E+00  0.1652797330E+03  0.2079227731E+03  0.6186296019E+02         1
       5      50  0.1600000000E+02        10    1        10       128  0.6573244692E+00  0.7512069113E+00  0.3166700000E+00  0.1659086968E+03  0.2362681037E+03  0.6186296503E+02         1
       5      50  0.1600000000E+02        11    1        11       428  0.3948313705E+00  0.4987814134E+00  0.3166700000E+00  0.1602213464E+03  0.8248172120E+02  0.6186309549E+02         1
       5      50  0.1600000000E+02        12    1        12       428  0.6110852790E+00  0.7277014963E+00  0.3166700000E+00  0.1649068477E+03  0.8591552244E+02  0.6186309549E+02         1
       5      50  0.1600000000E+02        13    1        13       458  0.1566891698E+00  0.2823106629E+00  0.3166700000E+00  0.1550615987E+03  0.6423465994E+02  0.6186311965E+02         1
       5      50  0.1600000000E+02        14    1        14       429  0.3210469119E+00  0.2956572687E+00  0.3166700000E+00  0.1802893498E+03  0.7943485903E+02  0.6164980131E+02         1
       5      50  0.1600000000E+02        15    1        15       459  0.1788802909E+00  0.2828361267E+00  0.3166700000E+00  0.1772090730E+03  0.6424254190E+02  0.6164983514E+02         1
       5      50  0.1600000000E+02        16    1        16       428  0.7674541137E-01  0.1149911414E+00  0.3166700000E+00  0.1533294839E+03  0.7672486712E+02  0.6186309549E+02         1
       5      50  0.1600000000E+02        17    1        17       428  0.3796810967E+00  0.4443113936E+00  0.3166700000E+00  0.1598930904E+03  0.8166467090E+02  0.6186309549E+02         1
       5      50  0.1600000000E+02        18    1        18       428  0.9531214608E+00  0.5936714477E+00  0.3166700000E+00  0.1723176317E+03  0.8390507172E+02  0.6186309549E+02         1