
MODPATH Version 7.1.000    (September 26, 2016)         

MODPATH name file data
----------------------
   MPBAS File: gui_ex1.mpbas
     DIS File: gui_ex1.dis
    HEAD File: 00-gui_ex1.hed
  BUDGET File: 00-gui_ex1.bud

Grid data
---------
Grid file type: MODFLOW-2005 discretization file (DIS)
 #Discretization input data for gui_ex1 --Transient

 LAYCBD                   =         0



           BaseDX                  
 READING ON UNIT  101 WITH FORMAT: (FREE)              
   21.667       21.667       21.667       21.667       21.667       21.667       21.667       21.667       21.667       21.667    
   21.667       21.667       21.667       21.667       21.667       21.667       21.667       21.667       21.667       21.667    
   21.667       21.667       21.667       21.667       21.667       21.667       21.667       21.667       21.667       21.667    



           BaseDY                  
 READING ON UNIT  101 WITH FORMAT: (FREE)              
   15.000       15.000       15.000       15.000       15.000       15.000       15.000       15.000       15.000       15.000    
   15.000       15.000       15.000       15.000       15.000       15.000       15.000       15.000       15.000       15.000    



           TOP ELEVATION            FOR LAYER   1
 READING ON UNIT  101 WITH FORMAT: (FREE)              

            1           2           3           4           5           6           7           8           9          10
           11          12          13          14          15          16          17          18          19          20
           21          22          23          24          25          26          27          28          29          30
 ........................................................................................................................
   1    300.0       300.0       300.0       300.0       300.0       300.0       300.0       300.0       300.0       300.0    
        300.0       300.0       300.0       300.0       300.0       300.0       300.0       300.0       300.0       300.0    
        300.0       300.0       300.0       300.0       300.0       300.0       300.0       300.0       300.0       300.0    
   2    300.0       300.0       300.0       300.0       300.0       300.0       300.0       300.0       300.0       300.0    
        300.0       300.0       300.0       300.0       300.0       300.0       300.0       300.0       300.0       300.0    
        300.0       300.0       300.0       300.0       300.0       300.0       300.0       300.0       300.0       300.0    
   3    300.0       300.0       300.0       300.0       300.0       300.0       300.0       300.0       300.0       300.0    
        300.0       300.0       300.0       300.0       300.0       300.0       300.0       300.0       300.0       300.0    
        300.0       300.0       300.0       300.0       300.0       300.0       300.0       300.0       300.0       300.0    
   4    300.0       300.0       300.0       300.0       300.0       300.0       300.0       300.0       300.0       300.0    
        300.0       300.0       300.0       300.0       300.0       300.0       300.0       300.0       300.0       300.0    
        300.0       300.0       300.0       300.0       300.0       300.0       300.0       300.0       300.0       300.0    
   5    300.0       300.0       300.0       300.0       300.0       300.0       300.0       300.0       300.0       300.0    
        300.0       300.0       300.0       300.0       300.0       300.0       300.0       300.0       300.0       300.0    
        300.0       300.0       300.0       300.0       300.0       300.0       300.0       300.0       300.0       300.0    
   6    300.0       300.0       300.0       300.0       300.0       300.0       300.0       300.0       300.0       300.0    
        300.0       300.0       300.0       300.0       300.0       300.0       300.0       300.0       300.0       300.0    
        300.0       300.0       300.0       300.0       300.0       300.0       300.0       300.0       300.0       300.0    
   7    300.0       300.0       300.0       300.0       300.0       300.0       300.0       300.0       300.0       300.0    
        300.0       300.0       300.0       300.0       300.0       300.0       300.0       300.0       300.0       300.0    
        300.0       300.0       300.0       300.0       300.0       300.0       300.0       300.0       300.0       300.0    
   8    300.0       300.0       300.0       300.0       300.0       300.0       300.0       300.0       300.0       300.0    
        300.0       300.0       300.0       300.0       300.0       300.0       300.0       300.0       300.0       300.0    
        300.0       300.0       300.0       300.0       300.0       300.0       300.0       300.0       300.0       300.0    
   9    300.0       300.0       300.0       300.0       300.0       300.0       300.0       300.0       300.0       300.0    
        300.0       300.0       300.0       300.0       300.0       300.0       300.0       300.0       300.0       300.0    
        300.0       300.0       300.0       300.0       300.0       300.0       300.0       300.0       300.0       300.0    
  10    300.0       300.0       300.0       300.0       300.0       300.0       300.0       300.0       300.0       300.0    
        300.0       300.0       300.0       300.0       300.0       300.0       300.0       300.0       300.0       300.0    
        300.0       300.0       300.0       300.0       300.0       300.0       300.0       300.0       300.0       300.0    
  11    300.0       300.0       300.0       300.0       300.0       300.0       300.0       300.0       300.0       300.0    
        300.0       300.0       300.0       300.0       300.0       300.0       300.0       300.0       300.0       300.0    
        300.0       300.0       300.0       300.0       300.0       300.0       300.0       300.0       300.0       300.0    
  12    300.0       300.0       300.0       300.0       300.0       300.0       300.0       300.0       300.0       300.0    
        300.0       300.0       300.0       300.0       300.0       300.0       300.0       300.0       300.0       300.0    
        300.0       300.0       300.0       300.0       300.0       300.0       300.0       300.0       300.0       300.0    
  13    300.0       300.0       300.0       300.0       300.0       300.0       300.0       300.0       300.0       300.0    
        300.0       300.0       300.0       300.0       300.0       300.0       300.0       300.0       300.0       300.0    
        300.0       300.0       300.0       300.0       300.0       300.0       300.0       300.0       300.0       300.0    
  14    300.0       300.0       300.0       300.0       300.0       300.0       300.0       300.0       300.0       300.0    
        300.0       300.0       300.0       300.0       300.0       300.0       300.0       300.0       300.0       300.0    
        300.0       300.0       300.0       300.0       300.0       300.0       300.0       300.0       300.0       300.0    
  15    300.0       300.0       300.0       300.0       300.0       300.0       300.0       300.0       300.0       300.0    
        300.0       300.0       300.0       300.0       300.0       300.0       300.0       300.0       300.0       300.0    
        300.0       300.0       300.0       300.0       300.0       300.0       300.0       300.0       300.0       300.0    
  16    300.0       300.0       300.0       300.0       300.0       300.0       300.0       300.0       300.0       300.0    
        300.0       300.0       300.0       300.0       300.0       300.0       300.0       300.0       300.0       300.0    
        300.0       300.0       300.0       300.0       300.0       300.0       300.0       300.0       300.0       300.0    
  17    300.0       300.0       300.0       300.0       300.0       300.0       300.0       300.0       300.0       300.0    
        300.0       300.0       300.0       300.0       300.0       300.0       300.0       300.0       300.0       300.0    
        300.0       300.0       300.0       300.0       300.0       300.0       300.0       300.0       300.0       300.0    
  18    300.0       300.0       300.0       300.0       300.0       300.0       300.0       300.0       300.0       300.0    
        300.0       300.0       300.0       300.0       300.0       300.0       300.0       300.0       300.0       300.0    
        300.0       300.0       300.0       300.0       300.0       300.0       300.0       300.0       300.0       300.0    
  19    300.0       300.0       300.0       300.0       300.0       300.0       300.0       300.0       300.0       300.0    
        300.0       300.0       300.0       300.0       300.0       300.0       300.0       300.0       300.0       300.0    
        300.0       300.0       300.0       300.0       300.0       300.0       300.0       300.0       300.0       300.0    
  20    300.0       300.0       300.0       300.0       300.0       300.0       300.0       300.0       300.0       300.0    
        300.0       300.0       300.0       300.0       300.0       300.0       300.0       300.0       300.0       300.0    
        300.0       300.0       300.0       300.0       300.0       300.0       300.0       300.0       300.0       300.0    



           BOTTOM ELEVATION         FOR LAYER   1
 READING ON UNIT  101 WITH FORMAT: (FREE)              

            1           2           3           4           5           6           7           8           9          10
           11          12          13          14          15          16          17          18          19          20
           21          22          23          24          25          26          27          28          29          30
 ........................................................................................................................
   1    0.000       0.000       0.000       0.000       0.000       0.000       0.000       0.000       0.000       0.000    
        0.000       0.000       0.000       0.000       0.000       0.000       0.000       0.000       0.000       0.000    
        0.000       0.000       0.000       0.000       0.000       0.000       0.000       0.000       0.000       0.000    
   2    0.000       0.000       0.000       0.000       0.000       0.000       0.000       0.000       0.000       0.000    
        0.000       0.000       0.000       0.000       0.000       0.000       0.000       0.000       0.000       0.000    
        0.000       0.000       0.000       0.000       0.000       0.000       0.000       0.000       0.000       0.000    
   3    0.000       0.000       0.000       0.000       0.000       0.000       0.000       0.000       0.000       0.000    
        0.000       0.000       0.000       0.000       0.000       0.000       0.000       0.000       0.000       0.000    
        0.000       0.000       0.000       0.000       0.000       0.000       0.000       0.000       0.000       0.000    
   4    0.000       0.000       0.000       0.000       0.000       0.000       0.000       0.000       0.000       0.000    
        0.000       0.000       0.000       0.000       0.000       0.000       0.000       0.000       0.000       0.000    
        0.000       0.000       0.000       0.000       0.000       0.000       0.000       0.000       0.000       0.000    
   5    0.000       0.000       0.000       0.000       0.000       0.000       0.000       0.000       0.000       0.000    
        0.000       0.000       0.000       0.000       0.000       0.000       0.000       0.000       0.000       0.000    
        0.000       0.000       0.000       0.000       0.000       0.000       0.000       0.000       0.000       0.000    
   6    0.000       0.000       0.000       0.000       0.000       0.000       0.000       0.000       0.000       0.000    
        0.000       0.000       0.000       0.000       0.000       0.000       0.000       0.000       0.000       0.000    
        0.000       0.000       0.000       0.000       0.000       0.000       0.000       0.000       0.000       0.000    
   7    0.000       0.000       0.000       0.000       0.000       0.000       0.000       0.000       0.000       0.000    
        0.000       0.000       0.000       0.000       0.000       0.000       0.000       0.000       0.000       0.000    
        0.000       0.000       0.000       0.000       0.000       0.000       0.000       0.000       0.000       0.000    
   8    0.000       0.000       0.000       0.000       0.000       0.000       0.000       0.000       0.000       0.000    
        0.000       0.000       0.000       0.000       0.000       0.000       0.000       0.000       0.000       0.000    
        0.000       0.000       0.000       0.000       0.000       0.000       0.000       0.000       0.000       0.000    
   9    0.000       0.000       0.000       0.000       0.000       0.000       0.000       0.000       0.000       0.000    
        0.000       0.000       0.000       0.000       0.000       0.000       0.000       0.000       0.000       0.000    
        0.000       0.000       0.000       0.000       0.000       0.000       0.000       0.000       0.000       0.000    
  10    0.000       0.000       0.000       0.000       0.000       0.000       0.000       0.000       0.000       0.000    
        0.000       0.000       0.000       0.000       0.000       0.000       0.000       0.000       0.000       0.000    
        0.000       0.000       0.000       0.000       0.000       0.000       0.000       0.000       0.000       0.000    
  11    0.000       0.000       0.000       0.000       0.000       0.000       0.000       0.000       0.000       0.000    
        0.000       0.000       0.000       0.000       0.000       0.000       0.000       0.000       0.000       0.000    
        0.000       0.000       0.000       0.000       0.000       0.000       0.000       0.000       0.000       0.000    
  12    0.000       0.000       0.000       0.000       0.000       0.000       0.000       0.000       0.000       0.000    
        0.000       0.000       0.000       0.000       0.000       0.000       0.000       0.000       0.000       0.000    
        0.000       0.000       0.000       0.000       0.000       0.000       0.000       0.000       0.000       0.000    
  13    0.000       0.000       0.000       0.000       0.000       0.000       0.000       0.000       0.000       0.000    
        0.000       0.000       0.000       0.000       0.000       0.000       0.000       0.000       0.000       0.000    
        0.000       0.000       0.000       0.000       0.000       0.000       0.000       0.000       0.000       0.000    
  14    0.000       0.000       0.000       0.000       0.000       0.000       0.000       0.000       0.000       0.000    
        0.000       0.000       0.000       0.000       0.000       0.000       0.000       0.000       0.000       0.000    
        0.000       0.000       0.000       0.000       0.000       0.000       0.000       0.000       0.000       0.000    
  15    0.000       0.000       0.000       0.000       0.000       0.000       0.000       0.000       0.000       0.000    
        0.000       0.000       0.000       0.000       0.000       0.000       0.000       0.000       0.000       0.000    
        0.000       0.000       0.000       0.000       0.000       0.000       0.000       0.000       0.000       0.000    
  16    0.000       0.000       0.000       0.000       0.000       0.000       0.000       0.000       0.000       0.000    
        0.000       0.000       0.000       0.000       0.000       0.000       0.000       0.000       0.000       0.000    
        0.000       0.000       0.000       0.000       0.000       0.000       0.000       0.000       0.000       0.000    
  17    0.000       0.000       0.000       0.000       0.000       0.000       0.000       0.000       0.000       0.000    
        0.000       0.000       0.000       0.000       0.000       0.000       0.000       0.000       0.000       0.000    
        0.000       0.000       0.000       0.000       0.000       0.000       0.000       0.000       0.000       0.000    
  18    0.000       0.000       0.000       0.000       0.000       0.000       0.000       0.000       0.000       0.000    
        0.000       0.000       0.000       0.000       0.000       0.000       0.000       0.000       0.000       0.000    
        0.000       0.000       0.000       0.000       0.000       0.000       0.000       0.000       0.000       0.000    
  19    0.000       0.000       0.000       0.000       0.000       0.000       0.000       0.000       0.000       0.000    
        0.000       0.000       0.000       0.000       0.000       0.000       0.000       0.000       0.000       0.000    
        0.000       0.000       0.000       0.000       0.000       0.000       0.000       0.000       0.000       0.000    
  20    0.000       0.000       0.000       0.000       0.000       0.000       0.000       0.000       0.000       0.000    
        0.000       0.000       0.000       0.000       0.000       0.000       0.000       0.000       0.000       0.000    
        0.000       0.000       0.000       0.000       0.000       0.000       0.000       0.000       0.000       0.000    
 Stress period count =          6
 
 Time discretization file data
 -----------------------------
 Period length:        0.10000 Time step count:        10 Time step multiplier:        1.00000 Stress period type:SS
 Period length:        4.00000 Time step count:        10 Time step multiplier:        1.00000 Stress period type:TR
 Period length:        4.00000 Time step count:        10 Time step multiplier:        1.00000 Stress period type:TR
 Period length:        4.00000 Time step count:        10 Time step multiplier:        1.00000 Stress period type:TR
 Period length:        4.00000 Time step count:        10 Time step multiplier:        1.00000 Stress period type:TR
 Period length:        4.00000 Time step count:        10 Time step multiplier:        1.00000 Stress period type:TR
 
 The budget file was opened successfully.
 
 MODPATH basic data file data
 ----------------------------
 #MODPATH basic data file for gui_ex1
 Aquifer head is set to   9999.0     at all no-flow cells (IBOUND=0).
 Aquifer head is set to  1.00000E-30 at all dry cells.
 
 
 Layer type (LAYTYP)
  1



                     BOUNDARY ARRAY FOR LAYER   1
 READING ON UNIT  112 WITH FORMAT: (I3)                

                1           2           3           4           5           6           7           8           9          10
               11          12          13          14          15          16          17          18          19          20
               21          22          23          24          25          26          27          28          29          30
 ............................................................................................................................
   1           -1           1           1           1           1           1           1           1           1           1
                1           1           1           1           1           1           1           1           1           1
                1           1           1           1           1           1           1           1           1          -1
   2           -1           1           1           1           1           1           1           1           1           1
                1           1           1           1           1           1           1           1           1           1
                1           1           1           1           1           1           1           1           1          -1
   3           -1           1           1           1           1           1           1           1           1           1
                1           1           1           1           1           1           1           1           1           1
                1           1           1           1           1           1           1           1           1          -1
   4           -1           1           1           1           1           1           1           1           1           1
                1           1           1           1           1           1           1           1           1           1
                1           1           1           1           1           1           1           1           1          -1
   5           -1           1           1           1           1           1           1           1           1           1
                1           1           1           1           1           1           1           1           1           1
                1           1           1           1           1           1           1           1           1          -1
   6           -1           1           1           1           1           1           1           1           1           1
                1           1           1           1           1           1           1           1           1           1
                1           1           1           1           1           1           1           1           1          -1
   7           -1           1           1           1           1           1           1           1           1           1
                1           1           1           1           1           1           1           1           1           1
                1           1           1           1           1           1           1           1           1          -1
   8           -1           1           1           1           1           1           1           1           1           1
                1           1           1           1           1           1           1           1           1           1
                1           1           1           1           1           1           1           1           1          -1
   9           -1           1           1           1           1           1           1           1           1           1
                1           1           1           1           1           1           1           1           1           1
                1           1           1           1           1           1           1           1           1          -1
  10           -1           1           1           1           1           1           1           1           1           1
                1           1           1           1           1           1           1           1           1           1
                1           1           1           1           1           1           1           1           1          -1
  11           -1           1           1           1           1           1           1           1           1           1
                1           1           1           1           1           1           1           1           1           1
                1           1           1           1           1           1           1           1           1          -1
  12           -1           1           1           1           1           1           1           1           1           1
                1           1           1           1           1           1           1           1           1           1
                1           1           1           1           1           1           1           1           1          -1
  13           -1           1           1           1           1           1           1           1           1           1
                1           1           1           1           1           1           1           1           1           1
                1           1           1           1           1           1           1           1           1          -1
  14           -1           1           1           1           1           1           1           1           1           1
                1           1           1           1           1           1           1           1           1           1
                1           1           1           1           1           1           1           1           1          -1
  15           -1           1           1           1           1           1           1           1           1           1
                1           1           1           1           1           1           1           1           1           1
                1           1           1           1           1           1           1           1           1          -1
  16           -1           1           1           1           1           1           1           1           1           1
                1           1           1           1           1           1           1           1           1           1
                1           1           1           1           1           1           1           1           1          -1
  17           -1           1           1           1           1           1           1           1           1           1
                1           1           1           1           1           1           1           1           1           1
                1           1           1           1           1           1           1           1           1          -1
  18           -1           1           1           1           1           1           1           1           1           1
                1           1           1           1           1           1           1           1           1           1
                1           1           1           1           1           1           1           1           1          -1
  19           -1           1           1           1           1           1           1           1           1           1
                1           1           1           1           1           1           1           1           1           1
                1           1           1           1           1           1           1           1           1          -1
  20           -1           1           1           1           1           1           1           1           1           1
                1           1           1           1           1           1           1           1           1           1
                1           1           1           1           1           1           1           1           1          -1

                 POROSITY =  0.250000     FOR LAYER   1
 
 MODPATH simulation file data
 ----------------------------
Combined Pathline and Timeseries Analysis (Simulation type = 4)
Forward tracking (Tracking direction =  1)
Let particles pass through weak sink cells (Weak sink option = 1)
Let particles pass through weak source cells for backtracking simulations (Weak source option = 1)
Reference time =   0.0000000E+00
Specify a limit for tracking time (Stoping time option =  3)
Stop time =   0.2000000E+02

A zone array will be read.
Particles will be allowed to pass through all zones. StopZone =     0



                         ZONE ARRAY FOR LAYER   1
 READING ON UNIT  110 WITH FORMAT: (I3)                

                1           2           3           4           5           6           7           8           9          10
               11          12          13          14          15          16          17          18          19          20
               21          22          23          24          25          26          27          28          29          30
 ............................................................................................................................
   1            2           0           0           0           0           0           0           0           0           0
                0           0           0           0           0           0           0           0           0           0
                0           0           0           0           0           0           0           0           0           2
   2            2           0           0           0           0           0           0           0           0           0
                0           0           0           0           0           0           0           0           0           0
                0           0           0           0           0           0           0           0           0           2
   3            2           0           0           0           0           0           0           0           0           0
                0           0           0           0           0           0           0           0           0           0
                0           0           0           0           0           0           0           0           0           2
   4            2           0           0           0           0           0           0           0           0           0
                0           0           0           0           0           0           0           0           0           0
                0           0           0           0           0           0           0           0           0           2
   5            2           0           0           0           0           0           0           0           0           0