MODPATH_ENDPOINT_FILE         7         0
    1        35        35        35   0.0000000000E+00
       0      35       0       0       0       0       0       0       0       0
         1
PG1             
END HEADER
         1         1         1    1  0.0000000000E+00  0.3600000000E+03       159    1  0.2317800000E+00  0.8080000000E+00  0.3166700000E+00  0.1783552333E+03  0.2221200000E+03  0.6165169546E+02    0    0       161    1  0.3301308379E+00  0.8078614590E+00  0.3166700000E+00  0.2238195015E+03  0.2221179219E+03  0.6119134592E+02    0    0
         2         1         2    1  0.0000000000E+00  0.3600000000E+03       158    1  0.9942800000E+00  0.7235100000E+00  0.3166700000E+00  0.1732094000E+03  0.2208526500E+03  0.6186448711E+02    0    0       161    1  0.9081384972E-01  0.7234251584E+00  0.3166700000E+00  0.2186343001E+03  0.2208513774E+03  0.6119134592E+02    0    0
         3         1         3    1  0.0000000000E+00  0.3600000000E+03       127    1  0.7866600000E+00  0.5750300000E+00  0.3166700000E+00  0.1470443000E+03  0.2336254500E+03  0.6207656362E+02    0    0       129    1  0.8735785986E+00  0.5750221936E+00  0.3166700000E+00  0.1922608696E+03  0.2336253329E+03  0.6162589257E+02    0    0
         4         1         4    1  0.0000000000E+00  0.3600000000E+03       157    1  0.9343600000E+00  0.4276500000E+00  0.3166700000E+00  0.1502444667E+03  0.2164147500E+03  0.6207652013E+02    0    0       160    1  0.2246262913E-01  0.4277028525E+00  0.3166700000E+00  0.1954866903E+03  0.2164155428E+03  0.6140900822E+02    0    0
         5         1         5    1  0.0000000000E+00  0.3600000000E+03       129    1  0.1051700000E+00  0.1907500000E+00  0.3166700000E+00  0.1756120167E+03  0.2278612500E+03  0.6165172928E+02    0    0       131    1  0.2024924198E+00  0.1906042628E+00  0.3166700000E+00  0.2210540024E+03  0.2278590639E+03  0.6119136524E+02    0    0
         6         1         6    1  0.0000000000E+00  0.3600000000E+03       159    1  0.3712200000E+00  0.9055700000E+00  0.3166700000E+00  0.1813764333E+03  0.2235835500E+03  0.6165169546E+02    0    0       161    1  0.4706217684E+00  0.9053929287E+00  0.3166700000E+00  0.2268634717E+03  0.2235808939E+03  0.6119134592E+02    0    0
         7         1         7    1  0.0000000000E+00  0.3600000000E+03       158    1  0.5924600000E+00  0.5881000000E+00  0.3166700000E+00  0.1645033000E+03  0.2188215000E+03  0.6186448711E+02    0    0       160    1  0.6856832391E+00  0.5880775354E+00  0.3166700000E+00  0.2098564702E+03  0.2188211630E+03  0.6140900822E+02    0    0
         8         1         8    1  0.0000000000E+00  0.3600000000E+03       158    1  0.4918200000E-01  0.7687200000E+00  0.3166700000E+00  0.1527322767E+03  0.2215308000E+03  0.6186448711E+02    0    0       160    1  0.1383702621E+00  0.7687350824E+00  0.3166700000E+00  0.1979980223E+03  0.2215310262E+03  0.6140900822E+02    0    0
         9         1         9    1  0.0000000000E+00  0.3600000000E+03       188    1  0.5367800000E+00  0.8615200000E+00  0.3166700000E+00  0.1632969000E+03  0.2079228000E+03  0.6186444362E+02    0    0       190    1  0.6296281605E+00  0.8615748233E+00  0.3166700000E+00  0.2086419435E+03  0.2079236223E+03  0.6140900822E+02    0    0
        10         1        10    1  0.0000000000E+00  0.3600000000E+03       128    1  0.5658100000E+00  0.7512100000E+00  0.3166700000E+00  0.1639258833E+03  0.2362681500E+03  0.6186453059E+02    0    0       130    1  0.6587853735E+00  0.7511140797E+00  0.3166700000E+00  0.2092736831E+03  0.2362667112E+03  0.6140901788E+02    0    0
        11         1        11    1  0.0000000000E+00  0.3600000000E+03       428    1  0.3033300000E+00  0.4987700000E+00  0.3166700000E+00  0.1582388167E+03  0.8248155000E+02  0.6186436631E+02    0    0       430    1  0.3938516484E+00  0.4996724782E+00  0.3166700000E+00  0.2035334524E+03  0.8249508717E+02  0.6140934646E+02    0    0
        12         1        12    1  0.0000000000E+00  0.3600000000E+03       428    1  0.5195800000E+00  0.7276900000E+00  0.3166700000E+00  0.1629242333E+03  0.8591535000E+02  0.6186436631E+02    0    0       430    1  0.6116762874E+00  0.7286707624E+00  0.3166700000E+00  0.2082529862E+03  0.8593006144E+02  0.6140934646E+02    0    0
        13         1        13    1  0.0000000000E+00  0.3600000000E+03       458    1  0.6519400000E-01  0.2823000000E+00  0.3166700000E+00  0.1530792033E+03  0.6423450000E+02  0.6186440496E+02    0    0       460    1  0.1538489222E+00  0.2830447116E+00  0.3166700000E+00  0.1983333933E+03  0.6424567067E+02  0.6140940928E+02    0    0
        14         1        14    1  0.0000000000E+00  0.3600000000E+03       429    1  0.2292100000E+00  0.2956400000E+00  0.3166700000E+00  0.1782995500E+03  0.7943460000E+02  0.6165159398E+02    0    0       431    1  0.3268450202E+00  0.2968743411E+00  0.3166700000E+00  0.2237483088E+03  0.7945311512E+02  0.6119177113E+02    0    0
        15         1        15    1  0.0000000000E+00  0.3600000000E+03       459    1  0.8705000000E-01  0.2828200000E+00  0.3166700000E+00  0.1752194167E+03  0.6424230000E+02  0.6165162298E+02    0    0       461    1  0.1834538069E+00  0.2838879383E+00  0.3166700000E+00  0.2206414992E+03  0.6425831908E+02  0.6119186294E+02    0    0
        16         1        16    1  0.0000000000E+00  0.3600000000E+03       427    1  0.9853000000E+00  0.1149800000E+00  0.3166700000E+00  0.1513481667E+03  0.7672470000E+02  0.6207643799E+02    0    0       430    1  0.7344079129E-01  0.1157660737E+00  0.3166700000E+00  0.1965912171E+03  0.7673649111E+02  0.6140934646E+02    0    0
        17         1        17    1  0.0000000000E+00  0.3600000000E+03       428    1  0.2881800000E+00  0.4443000000E+00  0.3166700000E+00  0.1579105667E+03  0.8166450000E+02  0.6186436631E+02    0    0       430    1  0.3785907002E+00  0.4451953484E+00  0.3166700000E+00  0.2032027985E+03  0.8167793023E+02  0.6140934646E+02    0    0
        18         1        18    1  0.0000000000E+00  0.3600000000E+03       428    1  0.8616100000E+00  0.5936600000E+00  0.3166700000E+00  0.1703348833E+03  0.8390490000E+02  0.6186436631E+02    0    0       430    1  0.9561976357E+00  0.5947427399E+00  0.3166700000E+00  0.2157176154E+03  0.8392114110E+02  0.6140934646E+02    0    0
        19         1        19    1  0.0000000000E+00  0.3600000000E+03       458    1  0.1387400000E+00  0.7458200000E+00  0.3166700000E+00  0.1546727000E+03  0.7118730000E+02  0.6186440496E+02    0    0       460    1  0.2279288752E+00  0.7466267764E+00  0.3166700000E+00  0.1999384590E+03  0.7119940165E+02  0.6140940928E+02    0    0
        20         1        20    1  0.0000000000E+00  0.3600000000E+03       488    1  0.7397800000E+00  0.8254900000E+00  0.3166700000E+00  0.1676952333E+03  0.5738235000E+02  0.6186445328E+02    0    0       490    1  0.8331886374E+00  0.8263710672E+00  0.3166700000E+00  0.2130524205E+03  0.5739556601E+02  0.6140946726E+02    0    0
        21         1        21    1  0.0000000000E+00  0.3600000000E+03       336    1  0.4310000000E+00  0.5916300000E+00  0.3166700000E+00  0.1176716667E+03  0.1288744500E+03  0.6228773171E+02    0    0       338    1  0.5076497226E+00  0.5920822110E+00  0.3166700000E+00  0.1626657440E+03  0.1288812332E+03  0.6184211011E+02    0    0
        22         1        22    1  0.0000000000E+00  0.3600000000E+03       247    1  0.5933000000E-01  0.3689900000E+00  0.3166700000E+00  0.1312854833E+03  0.1705348500E+03  0.6207640899E+02    0    0       249    1  0.1409398683E+00  0.3693169262E+00  0.3166700000E+00  0.1763870305E+03  0.1705397539E+03  0.6162592157E+02    0    0
        23         1        23    1  0.0000000000E+00  0.3600000000E+03       307    1  0.2211700000E+00  0.8534800000E+00  0.3166700000E+00  0.1347920167E+03  0.1478022000E+03  0.6207637517E+02    0    0       309    1  0.3038850151E+00  0.8539568371E+00  0.3166700000E+00  0.1799175087E+03  0.1478093526E+03  0.6162597955E+02    0    0
        24         1        24    1  0.0000000000E+00  0.3600000000E+03       247    1  0.2567900000E+00  0.5849000000E+00  0.3166700000E+00  0.1355637833E+03  0.1737735000E+03  0.6207640899E+02    0    0       249    1  0.3398567552E+00  0.5852182305E+00  0.3166700000E+00  0.1806968964E+03  0.1737782735E+03  0.6162592157E+02    0    0
        25         1        25    1  0.0000000000E+00  0.3600000000E+03       307    1  0.2104400000E+00  0.6133800000E+00  0.3166700000E+00  0.1345595333E+03  0.1442007000E+03  0.6207637517E+02    0    0       309    1  0.2930762704E+00  0.6138746515E+00  0.3166700000E+00  0.1796833192E+03  0.1442081198E+03  0.6162597955E+02    0    0
        26         1        26    1  0.0000000000E+00  0.3600000000E+03       306    1  0.5324300000E+00  0.3938700000E+00  0.3166700000E+00  0.1198693167E+03  0.1409080500E+03  0.6228772688E+02    0    0       308    1  0.6098654158E+00  0.3942947289E+00  0.3166700000E+00  0.1648804173E+03  0.1409144209E+03  0.6184208112E+02    0    0
        27         1        27    1  0.0000000000E+00  0.3600000000E+03       246    1  0.8638700000E+00  0.4237000000E+00  0.3166700000E+00  0.1270505167E+03  0.1713555000E+03  0.6228774138E+02    0    0       248    1  0.9437702626E+00  0.4240111986E+00  0.3166700000E+00  0.1721150224E+03  0.1713601680E+03  0.6184203763E+02    0    0
        28         1        28    1  0.0000000000E+00  0.3600000000E+03       306    1  0.6830700000E+00  0.8430300000E+00  0.3166700000E+00  0.1231331833E+03  0.1476454500E+03  0.6228772688E+02    0    0       308    1  0.7615879416E+00  0.8434434696E+00  0.3166700000E+00  0.1681677387E+03  0.1476516520E+03  0.6184208112E+02    0    0
        29         1        29    1  0.0000000000E+00  0.3600000000E+03       336    1  0.7929100000E+00  0.6862800000E+00  0.3166700000E+00  0.1255130500E+03  0.1302942000E+03  0.6228773171E+02    0    0       338    1  0.8721555659E+00  0.6867763332E+00  0.3166700000E+00  0.1705633706E+03  0.1303016450E+03  0.6184211011E+02    0    0
        30         1        30    1  0.0000000000E+00  0.3600000000E+03       246    1  0.9272600000E+00  0.5589900000E+00  0.3166700000E+00  0.1284239667E+03  0.1733848500E+03  0.6228774138E+02    0    0       249    1  0.7644244356E-02  0.5592930451E+00  0.3166700000E+00  0.1734989586E+03  0.1733893957E+03  0.6162592157E+02    0    0
        31         1        31    1  0.0000000000E+00  0.3600000000E+03       337    1  0.2392800000E+00  0.9642200000E+00  0.3166700000E+00  0.1351844000E+03  0.1344633000E+03  0.6207637517E+02    0    0       339    1  0.3220582777E+00  0.9647705640E+00  0.3166700000E+00  0.1803112627E+03  0.1344715585E+03  0.6162601821E+02    0    0
        32         1        32    1  0.0000000000E+00  0.3600000000E+03       276    1  0.1311800000E+00  0.8675200000E+00  0.3166700000E+00  0.1111755667E+03  0.1630128000E+03  0.6228773171E+02    0    0       278    1  0.2057640892E+00  0.8678203501E+00  0.3166700000E+00  0.1561248886E+03  0.1630173053E+03  0.6184205696E+02    0    0
        33         1        33    1  0.0000000000E+00  0.3600000000E+03       337    1  0.3718800000E+00  0.8327700000E+00  0.3166700000E+00  0.1380574000E+03  0.1324915500E+03  0.6207637517E+02    0    0       339    1  0.4556240607E+00  0.8333509860E+00  0.3166700000E+00  0.1832051880E+03  0.1325002648E+03  0.6162601821E+02    0    0
        34         1        34    1  0.0000000000E+00  0.3600000000E+03       337    1  0.3282800000E+00  0.3953600000E+00  0.3166700000E+00  0.1371127333E+03  0.1259304000E+03  0.6207637517E+02    0    0       339    1  0.4117065909E+00  0.3959614898E+00  0.3166700000E+00  0.1822536428E+03  0.1259394223E+03  0.6162601821E+02    0    0
        35         1        35    1  0.0000000000E+00  0.3600000000E+03       277    1  0.9814300000E+00  0.9902400000E+00  0.3166700000E+00  0.1512643167E+03  0.1648536000E+03  0.6207638483E+02    0    0       280    1  0.7002399324E-01  0.9906745892E+00  0.3166700000E+00  0.1965171865E+03  0.1648601188E+03  0.6140906137E+02    0    0
